version 2
run Default-0-20190708-23:11:06-10113
attr configname Default
attr datetime 20190708-23:11:06
attr experiment Default
attr inifile omnetpp.ini
attr iterationvars ""
attr iterationvarsf ""
attr measurement ""
attr network SimpleScenario
attr processid 10113
attr repetition 0
attr replication #0
attr resultdir results
attr runnumber 0
attr seedset 0
param *.node[*].appl.sendBeacons true
param *.playgroundSizeX 4000m
param *.playgroundSizeY 4000m
param *.playgroundSizeZ 1000m
param *.world.useTorus false
param *.world.use2D false
param *.annotations.draw true
param *.connectionManager.sendDirect true
param *.connectionManager.maxInterfDist 400m
param *.connectionManager.drawMaxIntfDist false
param *.**.nic.mac1609_4.useServiceChannel false
param *.**.nic.mac1609_4.txPower 5mW
param *.**.nic.mac1609_4.bitrate 6Mbps
param *.**.nic.phy80211p.minPowerLevel -110dBm
param *.**.nic.phy80211p.useNoiseFloor true
param *.**.nic.phy80211p.noiseFloor -98dBm
param *.**.nic.phy80211p.decider "xmldoc(\"config.xml\")"
param *.**.nic.phy80211p.analogueModels "xmldoc(\"config.xml\")"
param *.**.nic.phy80211p.usePropagationDelay true
param *.**.nic.phy80211p.antenna "xmldoc(\"antenna.xml\", \"/root/Antenna[@id='monopole']\")"
param *.node[*].nic.phy80211p.antennaOffsetY "0 m"
param *.node[*].nic.phy80211p.antennaOffsetZ "1.895 m"
param *.node[*].applType "\"SimpleWaveApp\""
param *.node[*].appl.headerLength "80 bit"
param *.node[*].appl.sendBeacons false
param *.node[*].appl.dataOnSch false
param *.node[*].appl.beaconInterval 1s
param *.node[*].appl.beaconPriority 2
param *.node[*].mobility.x -1
param *.node[*].mobility.y -1
param *.node[*].mobility.z -1
param *.node[*].mobility.angle "uniform(0deg, 359deg)"
param *.node[*].mobility.acceleration 0mpss
param *.node[*].mobility.updateInterval 100ms
param *.node[*].mobility.speed "uniform(22mps, 35mps)"

scalar SimpleScenario.node[0].appl generatedWSMs 0
scalar SimpleScenario.node[0].appl receivedWSMs 0
scalar SimpleScenario.node[0].appl generatedBSMs 268
scalar SimpleScenario.node[0].appl receivedBSMs 136
scalar SimpleScenario.node[0].nic.phy80211p busyTime 0.00016692
scalar SimpleScenario.node[0].nic.mac1609_4 ReceivedUnicastPackets 0
scalar SimpleScenario.node[0].nic.mac1609_4 ReceivedBroadcasts 136
scalar SimpleScenario.node[0].nic.mac1609_4 SentPackets 268
scalar SimpleScenario.node[0].nic.mac1609_4 SentAcknowledgements 0
scalar SimpleScenario.node[0].nic.mac1609_4 SNIRLostPackets 185
scalar SimpleScenario.node[0].nic.mac1609_4 RXTXLostPackets 0
scalar SimpleScenario.node[0].nic.mac1609_4 TotalLostPackets 185
scalar SimpleScenario.node[0].nic.mac1609_4 DroppedPacketsInMac 0
scalar SimpleScenario.node[0].nic.mac1609_4 TooLittleTime 0
scalar SimpleScenario.node[0].nic.mac1609_4 TimesIntoBackoff 268
scalar SimpleScenario.node[0].nic.mac1609_4 SlotsBackoff 2043
scalar SimpleScenario.node[0].nic.mac1609_4 NumInternalContention 0
scalar SimpleScenario.node[0].nic.mac1609_4 totalBusyTime 0.061524
scalar SimpleScenario.node[1].appl generatedWSMs 0
scalar SimpleScenario.node[1].appl receivedWSMs 0
scalar SimpleScenario.node[1].appl generatedBSMs 265
scalar SimpleScenario.node[1].appl receivedBSMs 157
scalar SimpleScenario.node[1].nic.phy80211p busyTime 0.00018044
scalar SimpleScenario.node[1].nic.mac1609_4 ReceivedUnicastPackets 0
scalar SimpleScenario.node[1].nic.mac1609_4 ReceivedBroadcasts 157
scalar SimpleScenario.node[1].nic.mac1609_4 SentPackets 265
scalar SimpleScenario.node[1].nic.mac1609_4 SentAcknowledgements 0
scalar SimpleScenario.node[1].nic.mac1609_4 SNIRLostPackets 190
scalar SimpleScenario.node[1].nic.mac1609_4 RXTXLostPackets 0
scalar SimpleScenario.node[1].nic.mac1609_4 TotalLostPackets 190
scalar SimpleScenario.node[1].nic.mac1609_4 DroppedPacketsInMac 0
scalar SimpleScenario.node[1].nic.mac1609_4 TooLittleTime 0
scalar SimpleScenario.node[1].nic.mac1609_4 TimesIntoBackoff 265
scalar SimpleScenario.node[1].nic.mac1609_4 SlotsBackoff 1785
scalar SimpleScenario.node[1].nic.mac1609_4 NumInternalContention 0
scalar SimpleScenario.node[1].nic.mac1609_4 totalBusyTime 0.063913
scalar SimpleScenario.node[2].appl generatedWSMs 0
scalar SimpleScenario.node[2].appl receivedWSMs 0
scalar SimpleScenario.node[2].appl generatedBSMs 313
scalar SimpleScenario.node[2].appl receivedBSMs 316
scalar SimpleScenario.node[2].nic.phy80211p busyTime 0.00034424
scalar SimpleScenario.node[2].nic.mac1609_4 ReceivedUnicastPackets 0
scalar SimpleScenario.node[2].nic.mac1609_4 ReceivedBroadcasts 316
scalar SimpleScenario.node[2].nic.mac1609_4 SentPackets 313
scalar SimpleScenario.node[2].nic.mac1609_4 SentAcknowledgements 0
scalar SimpleScenario.node[2].nic.mac1609_4 SNIRLostPackets 346
scalar SimpleScenario.node[2].nic.mac1609_4 RXTXLostPackets 3
scalar SimpleScenario.node[2].nic.mac1609_4 TotalLostPackets 349
scalar SimpleScenario.node[2].nic.mac1609_4 DroppedPacketsInMac 0
scalar SimpleScenario.node[2].nic.mac1609_4 TooLittleTime 0
scalar SimpleScenario.node[2].nic.mac1609_4 TimesIntoBackoff 313
scalar SimpleScenario.node[2].nic.mac1609_4 SlotsBackoff 2358
scalar SimpleScenario.node[2].nic.mac1609_4 NumInternalContention 0
scalar SimpleScenario.node[2].nic.mac1609_4 totalBusyTime 0.101713
scalar SimpleScenario.node[3].appl generatedWSMs 0
scalar SimpleScenario.node[3].appl receivedWSMs 0
scalar SimpleScenario.node[3].appl generatedBSMs 253
scalar SimpleScenario.node[3].appl receivedBSMs 108
scalar SimpleScenario.node[3].nic.phy80211p busyTime 0.00013468
scalar SimpleScenario.node[3].nic.mac1609_4 ReceivedUnicastPackets 0
scalar SimpleScenario.node[3].nic.mac1609_4 ReceivedBroadcasts 108
scalar SimpleScenario.node[3].nic.mac1609_4 SentPackets 253
scalar SimpleScenario.node[3].nic.mac1609_4 SentAcknowledgements 0
scalar SimpleScenario.node[3].nic.mac1609_4 SNIRLostPackets 151
scalar SimpleScenario.node[3].nic.mac1609_4 RXTXLostPackets 0
scalar SimpleScenario.node[3].nic.mac1609_4 TotalLostPackets 151
scalar SimpleScenario.node[3].nic.mac1609_4 DroppedPacketsInMac 0
scalar SimpleScenario.node[3].nic.mac1609_4 TooLittleTime 0
scalar SimpleScenario.node[3].nic.mac1609_4 TimesIntoBackoff 253
scalar SimpleScenario.node[3].nic.mac1609_4 SlotsBackoff 1975
scalar SimpleScenario.node[3].nic.mac1609_4 NumInternalContention 0
scalar SimpleScenario.node[3].nic.mac1609_4 totalBusyTime 0.053501
scalar SimpleScenario.node[4].appl generatedWSMs 0
scalar SimpleScenario.node[4].appl receivedWSMs 0
scalar SimpleScenario.node[4].appl generatedBSMs 272
scalar SimpleScenario.node[4].appl receivedBSMs 172
scalar SimpleScenario.node[4].nic.phy80211p busyTime 0.000195
scalar SimpleScenario.node[4].nic.mac1609_4 ReceivedUnicastPackets 0
scalar SimpleScenario.node[4].nic.mac1609_4 ReceivedBroadcasts 172
scalar SimpleScenario.node[4].nic.mac1609_4 SentPackets 272
scalar SimpleScenario.node[4].nic.mac1609_4 SentAcknowledgements 0
scalar SimpleScenario.node[4].nic.mac1609_4 SNIRLostPackets 203
scalar SimpleScenario.node[4].nic.mac1609_4 RXTXLostPackets 0
scalar SimpleScenario.node[4].nic.mac1609_4 TotalLostPackets 203
scalar SimpleScenario.node[4].nic.mac1609_4 DroppedPacketsInMac 0
scalar SimpleScenario.node[4].nic.mac1609_4 TooLittleTime 0
scalar SimpleScenario.node[4].nic.mac1609_4 TimesIntoBackoff 272
scalar SimpleScenario.node[4].nic.mac1609_4 SlotsBackoff 2078
scalar SimpleScenario.node[4].nic.mac1609_4 NumInternalContention 0
scalar SimpleScenario.node[4].nic.mac1609_4 totalBusyTime 0.06756
scalar SimpleScenario.node[5].appl generatedWSMs 0
scalar SimpleScenario.node[5].appl receivedWSMs 0
scalar SimpleScenario.node[5].appl generatedBSMs 240
scalar SimpleScenario.node[5].appl receivedBSMs 104
scalar SimpleScenario.node[5].nic.phy80211p busyTime 0.00018876
scalar SimpleScenario.node[5].nic.mac1609_4 ReceivedUnicastPackets 0
scalar SimpleScenario.node[5].nic.mac1609_4 ReceivedBroadcasts 104
scalar SimpleScenario.node[5].nic.mac1609_4 SentPackets 240
scalar SimpleScenario.node[5].nic.mac1609_4 SentAcknowledgements 0
scalar SimpleScenario.node[5].nic.mac1609_4 SNIRLostPackets 259
scalar SimpleScenario.node[5].nic.mac1609_4 RXTXLostPackets 0
scalar SimpleScenario.node[5].nic.mac1609_4 TotalLostPackets 259
scalar SimpleScenario.node[5].nic.mac1609_4 DroppedPacketsInMac 0
scalar SimpleScenario.node[5].nic.mac1609_4 TooLittleTime 0
scalar SimpleScenario.node[5].nic.mac1609_4 TimesIntoBackoff 240
scalar SimpleScenario.node[5].nic.mac1609_4 SlotsBackoff 1856
scalar SimpleScenario.node[5].nic.mac1609_4 NumInternalContention 0
scalar SimpleScenario.node[5].nic.mac1609_4 totalBusyTime 0.062952
scalar SimpleScenario.node[6].appl generatedWSMs 0
scalar SimpleScenario.node[6].appl receivedWSMs 0
scalar SimpleScenario.node[6].appl generatedBSMs 227
scalar SimpleScenario.node[6].appl receivedBSMs 49
scalar SimpleScenario.node[6].nic.phy80211p busyTime 8.32e-05
scalar SimpleScenario.node[6].nic.mac1609_4 ReceivedUnicastPackets 0
scalar SimpleScenario.node[6].nic.mac1609_4 ReceivedBroadcasts 49
scalar SimpleScenario.node[6].nic.mac1609_4 SentPackets 227
scalar SimpleScenario.node[6].nic.mac1609_4 SentAcknowledgements 0
scalar SimpleScenario.node[6].nic.mac1609_4 SNIRLostPackets 111
scalar SimpleScenario.node[6].nic.mac1609_4 RXTXLostPackets 0
scalar SimpleScenario.node[6].nic.mac1609_4 TotalLostPackets 111
scalar SimpleScenario.node[6].nic.mac1609_4 DroppedPacketsInMac 0
scalar SimpleScenario.node[6].nic.mac1609_4 TooLittleTime 0
scalar SimpleScenario.node[6].nic.mac1609_4 TimesIntoBackoff 227
scalar SimpleScenario.node[6].nic.mac1609_4 SlotsBackoff 1724
scalar SimpleScenario.node[6].nic.mac1609_4 NumInternalContention 0
scalar SimpleScenario.node[6].nic.mac1609_4 totalBusyTime 0.040475
scalar SimpleScenario.node[7].appl generatedWSMs 0
scalar SimpleScenario.node[7].appl receivedWSMs 0
scalar SimpleScenario.node[7].appl generatedBSMs 264
scalar SimpleScenario.node[7].appl receivedBSMs 140
scalar SimpleScenario.node[7].nic.phy80211p busyTime 0.0002522
scalar SimpleScenario.node[7].nic.mac1609_4 ReceivedUnicastPackets 0
scalar SimpleScenario.node[7].nic.mac1609_4 ReceivedBroadcasts 140
scalar SimpleScenario.node[7].nic.mac1609_4 SentPackets 264
scalar SimpleScenario.node[7].nic.mac1609_4 SentAcknowledgements 0
scalar SimpleScenario.node[7].nic.mac1609_4 SNIRLostPackets 345
scalar SimpleScenario.node[7].nic.mac1609_4 RXTXLostPackets 0
scalar SimpleScenario.node[7].nic.mac1609_4 TotalLostPackets 345
scalar SimpleScenario.node[7].nic.mac1609_4 DroppedPacketsInMac 0
scalar SimpleScenario.node[7].nic.mac1609_4 TooLittleTime 0
scalar SimpleScenario.node[7].nic.mac1609_4 TimesIntoBackoff 264
scalar SimpleScenario.node[7].nic.mac1609_4 SlotsBackoff 2050
scalar SimpleScenario.node[7].nic.mac1609_4 NumInternalContention 0
scalar SimpleScenario.node[7].nic.mac1609_4 totalBusyTime 0.07816
scalar SimpleScenario.node[8].appl generatedWSMs 0
scalar SimpleScenario.node[8].appl receivedWSMs 0
scalar SimpleScenario.node[8].appl generatedBSMs 294
scalar SimpleScenario.node[8].appl receivedBSMs 226
scalar SimpleScenario.node[8].nic.phy80211p busyTime 0.0003328
scalar SimpleScenario.node[8].nic.mac1609_4 ReceivedUnicastPackets 0
scalar SimpleScenario.node[8].nic.mac1609_4 ReceivedBroadcasts 226
scalar SimpleScenario.node[8].nic.mac1609_4 SentPackets 294
scalar SimpleScenario.node[8].nic.mac1609_4 SentAcknowledgements 0
scalar SimpleScenario.node[8].nic.mac1609_4 SNIRLostPackets 414
scalar SimpleScenario.node[8].nic.mac1609_4 RXTXLostPackets 0
scalar SimpleScenario.node[8].nic.mac1609_4 TotalLostPackets 414
scalar SimpleScenario.node[8].nic.mac1609_4 DroppedPacketsInMac 0
scalar SimpleScenario.node[8].nic.mac1609_4 TooLittleTime 0
scalar SimpleScenario.node[8].nic.mac1609_4 TimesIntoBackoff 294
scalar SimpleScenario.node[8].nic.mac1609_4 SlotsBackoff 2206
scalar SimpleScenario.node[8].nic.mac1609_4 NumInternalContention 0
scalar SimpleScenario.node[8].nic.mac1609_4 totalBusyTime 0.09743
scalar SimpleScenario.node[9].appl generatedWSMs 0
scalar SimpleScenario.node[9].appl receivedWSMs 0
scalar SimpleScenario.node[9].appl generatedBSMs 229
scalar SimpleScenario.node[9].appl receivedBSMs 53
scalar SimpleScenario.node[9].nic.phy80211p busyTime 0.00014664
scalar SimpleScenario.node[9].nic.mac1609_4 ReceivedUnicastPackets 0
scalar SimpleScenario.node[9].nic.mac1609_4 ReceivedBroadcasts 53
scalar SimpleScenario.node[9].nic.mac1609_4 SentPackets 229
scalar SimpleScenario.node[9].nic.mac1609_4 SentAcknowledgements 0
scalar SimpleScenario.node[9].nic.mac1609_4 SNIRLostPackets 229
scalar SimpleScenario.node[9].nic.mac1609_4 RXTXLostPackets 0
scalar SimpleScenario.node[9].nic.mac1609_4 TotalLostPackets 229
scalar SimpleScenario.node[9].nic.mac1609_4 DroppedPacketsInMac 0
scalar SimpleScenario.node[9].nic.mac1609_4 TooLittleTime 0
scalar SimpleScenario.node[9].nic.mac1609_4 TimesIntoBackoff 229
scalar SimpleScenario.node[9].nic.mac1609_4 SlotsBackoff 1615
scalar SimpleScenario.node[9].nic.mac1609_4 NumInternalContention 0
scalar SimpleScenario.node[9].nic.mac1609_4 totalBusyTime 0.053373
scalar SimpleScenario.node[10].appl generatedWSMs 0
scalar SimpleScenario.node[10].appl receivedWSMs 0
scalar SimpleScenario.node[10].appl generatedBSMs 312
scalar SimpleScenario.node[10].appl receivedBSMs 255
scalar SimpleScenario.node[10].nic.phy80211p busyTime 0.00032552
scalar SimpleScenario.node[10].nic.mac1609_4 ReceivedUnicastPackets 0
scalar SimpleScenario.node[10].nic.mac1609_4 ReceivedBroadcasts 255
scalar SimpleScenario.node[10].nic.mac1609_4 SentPackets 312
scalar SimpleScenario.node[10].nic.mac1609_4 SentAcknowledgements 0
scalar SimpleScenario.node[10].nic.mac1609_4 SNIRLostPackets 371
scalar SimpleScenario.node[10].nic.mac1609_4 RXTXLostPackets 0
scalar SimpleScenario.node[10].nic.mac1609_4 TotalLostPackets 371
scalar SimpleScenario.node[10].nic.mac1609_4 DroppedPacketsInMac 0
scalar SimpleScenario.node[10].nic.mac1609_4 TooLittleTime 0
scalar SimpleScenario.node[10].nic.mac1609_4 TimesIntoBackoff 312
scalar SimpleScenario.node[10].nic.mac1609_4 SlotsBackoff 2342
scalar SimpleScenario.node[10].nic.mac1609_4 NumInternalContention 0
scalar SimpleScenario.node[10].nic.mac1609_4 totalBusyTime 0.097864
scalar SimpleScenario.node[11].appl generatedWSMs 0
scalar SimpleScenario.node[11].appl receivedWSMs 0
scalar SimpleScenario.node[11].appl generatedBSMs 303
scalar SimpleScenario.node[11].appl receivedBSMs 224
scalar SimpleScenario.node[11].nic.phy80211p busyTime 0.00025532
scalar SimpleScenario.node[11].nic.mac1609_4 ReceivedUnicastPackets 0
scalar SimpleScenario.node[11].nic.mac1609_4 ReceivedBroadcasts 224
scalar SimpleScenario.node[11].nic.mac1609_4 SentPackets 303
scalar SimpleScenario.node[11].nic.mac1609_4 SentAcknowledgements 0
scalar SimpleScenario.node[11].nic.mac1609_4 SNIRLostPackets 267
scalar SimpleScenario.node[11].nic.mac1609_4 RXTXLostPackets 0
scalar SimpleScenario.node[11].nic.mac1609_4 TotalLostPackets 267
scalar SimpleScenario.node[11].nic.mac1609_4 DroppedPacketsInMac 0
scalar SimpleScenario.node[11].nic.mac1609_4 TooLittleTime 0
scalar SimpleScenario.node[11].nic.mac1609_4 TimesIntoBackoff 303
scalar SimpleScenario.node[11].nic.mac1609_4 SlotsBackoff 2297
scalar SimpleScenario.node[11].nic.mac1609_4 NumInternalContention 0
scalar SimpleScenario.node[11].nic.mac1609_4 totalBusyTime 0.082879
scalar SimpleScenario.node[12].appl generatedWSMs 0
scalar SimpleScenario.node[12].appl receivedWSMs 0
scalar SimpleScenario.node[12].appl generatedBSMs 313
scalar SimpleScenario.node[12].appl receivedBSMs 249
scalar SimpleScenario.node[12].nic.phy80211p busyTime 0.00026936
scalar SimpleScenario.node[12].nic.mac1609_4 ReceivedUnicastPackets 0
scalar SimpleScenario.node[12].nic.mac1609_4 ReceivedBroadcasts 249
scalar SimpleScenario.node[12].nic.mac1609_4 SentPackets 313
scalar SimpleScenario.node[12].nic.mac1609_4 SentAcknowledgements 0
scalar SimpleScenario.node[12].nic.mac1609_4 SNIRLostPackets 269
scalar SimpleScenario.node[12].nic.mac1609_4 RXTXLostPackets 0
scalar SimpleScenario.node[12].nic.mac1609_4 TotalLostPackets 269
scalar SimpleScenario.node[12].nic.mac1609_4 DroppedPacketsInMac 0
scalar SimpleScenario.node[12].nic.mac1609_4 TooLittleTime 0
scalar SimpleScenario.node[12].nic.mac1609_4 TimesIntoBackoff 321
scalar SimpleScenario.node[12].nic.mac1609_4 SlotsBackoff 2492
scalar SimpleScenario.node[12].nic.mac1609_4 NumInternalContention 0
scalar SimpleScenario.node[12].nic.mac1609_4 totalBusyTime 0.086737
scalar SimpleScenario.node[13].appl generatedWSMs 0
scalar SimpleScenario.node[13].appl receivedWSMs 0
scalar SimpleScenario.node[13].appl generatedBSMs 281
scalar SimpleScenario.node[13].appl receivedBSMs 221
scalar SimpleScenario.node[13].nic.phy80211p busyTime 0.00030732
scalar SimpleScenario.node[13].nic.mac1609_4 ReceivedUnicastPackets 0
scalar SimpleScenario.node[13].nic.mac1609_4 ReceivedBroadcasts 221
scalar SimpleScenario.node[13].nic.mac1609_4 SentPackets 281
scalar SimpleScenario.node[13].nic.mac1609_4 SentAcknowledgements 0
scalar SimpleScenario.node[13].nic.mac1609_4 SNIRLostPackets 370
scalar SimpleScenario.node[13].nic.mac1609_4 RXTXLostPackets 0
scalar SimpleScenario.node[13].nic.mac1609_4 TotalLostPackets 370
scalar SimpleScenario.node[13].nic.mac1609_4 DroppedPacketsInMac 0
scalar SimpleScenario.node[13].nic.mac1609_4 TooLittleTime 0
scalar SimpleScenario.node[13].nic.mac1609_4 TimesIntoBackoff 281
scalar SimpleScenario.node[13].nic.mac1609_4 SlotsBackoff 2008
scalar SimpleScenario.node[13].nic.mac1609_4 NumInternalContention 0
scalar SimpleScenario.node[13].nic.mac1609_4 totalBusyTime 0.090969
scalar SimpleScenario.node[14].appl generatedWSMs 0
scalar SimpleScenario.node[14].appl receivedWSMs 0
scalar SimpleScenario.node[14].appl generatedBSMs 274
scalar SimpleScenario.node[14].appl receivedBSMs 173
scalar SimpleScenario.node[14].nic.phy80211p busyTime 0.0002288
scalar SimpleScenario.node[14].nic.mac1609_4 ReceivedUnicastPackets 0
scalar SimpleScenario.node[14].nic.mac1609_4 ReceivedBroadcasts 173
scalar SimpleScenario.node[14].nic.mac1609_4 SentPackets 274
scalar SimpleScenario.node[14].nic.mac1609_4 SentAcknowledgements 0
scalar SimpleScenario.node[14].nic.mac1609_4 SNIRLostPackets 267
scalar SimpleScenario.node[14].nic.mac1609_4 RXTXLostPackets 0
scalar SimpleScenario.node[14].nic.mac1609_4 TotalLostPackets 267
scalar SimpleScenario.node[14].nic.mac1609_4 DroppedPacketsInMac 0
scalar SimpleScenario.node[14].nic.mac1609_4 TooLittleTime 0
scalar SimpleScenario.node[14].nic.mac1609_4 TimesIntoBackoff 274
scalar SimpleScenario.node[14].nic.mac1609_4 SlotsBackoff 1867
scalar SimpleScenario.node[14].nic.mac1609_4 NumInternalContention 0
scalar SimpleScenario.node[14].nic.mac1609_4 totalBusyTime 0.07453
scalar SimpleScenario.node[15].appl generatedWSMs 0
scalar SimpleScenario.node[15].appl receivedWSMs 0
scalar SimpleScenario.node[15].appl generatedBSMs 267
scalar SimpleScenario.node[15].appl receivedBSMs 144
scalar SimpleScenario.node[15].nic.phy80211p busyTime 0.00022776
scalar SimpleScenario.node[15].nic.mac1609_4 ReceivedUnicastPackets 0
scalar SimpleScenario.node[15].nic.mac1609_4 ReceivedBroadcasts 144
scalar SimpleScenario.node[15].nic.mac1609_4 SentPackets 267
scalar SimpleScenario.node[15].nic.mac1609_4 SentAcknowledgements 0
scalar SimpleScenario.node[15].nic.mac1609_4 SNIRLostPackets 294
scalar SimpleScenario.node[15].nic.mac1609_4 RXTXLostPackets 3
scalar SimpleScenario.node[15].nic.mac1609_4 TotalLostPackets 297
scalar SimpleScenario.node[15].nic.mac1609_4 DroppedPacketsInMac 0
scalar SimpleScenario.node[15].nic.mac1609_4 TooLittleTime 0
scalar SimpleScenario.node[15].nic.mac1609_4 TimesIntoBackoff 267
scalar SimpleScenario.node[15].nic.mac1609_4 SlotsBackoff 1967
scalar SimpleScenario.node[15].nic.mac1609_4 NumInternalContention 0
scalar SimpleScenario.node[15].nic.mac1609_4 totalBusyTime 0.073587
scalar SimpleScenario.node[16].appl generatedWSMs 0
scalar SimpleScenario.node[16].appl receivedWSMs 0
scalar SimpleScenario.node[16].appl generatedBSMs 253
scalar SimpleScenario.node[16].appl receivedBSMs 116
scalar SimpleScenario.node[16].nic.phy80211p busyTime 0.00012948
scalar SimpleScenario.node[16].nic.mac1609_4 ReceivedUnicastPackets 0
scalar SimpleScenario.node[16].nic.mac1609_4 ReceivedBroadcasts 116
scalar SimpleScenario.node[16].nic.mac1609_4 SentPackets 253
scalar SimpleScenario.node[16].nic.mac1609_4 SentAcknowledgements 0
scalar SimpleScenario.node[16].nic.mac1609_4 SNIRLostPackets 133
scalar SimpleScenario.node[16].nic.mac1609_4 RXTXLostPackets 0
scalar SimpleScenario.node[16].nic.mac1609_4 TotalLostPackets 133
scalar SimpleScenario.node[16].nic.mac1609_4 DroppedPacketsInMac 0
scalar SimpleScenario.node[16].nic.mac1609_4 TooLittleTime 0
scalar SimpleScenario.node[16].nic.mac1609_4 TimesIntoBackoff 253
scalar SimpleScenario.node[16].nic.mac1609_4 SlotsBackoff 1897
scalar SimpleScenario.node[16].nic.mac1609_4 NumInternalContention 0
scalar SimpleScenario.node[16].nic.mac1609_4 totalBusyTime 0.052461
scalar SimpleScenario.node[17].appl generatedWSMs 0
scalar SimpleScenario.node[17].appl receivedWSMs 0
scalar SimpleScenario.node[17].appl generatedBSMs 253
scalar SimpleScenario.node[17].appl receivedBSMs 114
scalar SimpleScenario.node[17].nic.phy80211p busyTime 0.000169
scalar SimpleScenario.node[17].nic.mac1609_4 ReceivedUnicastPackets 0
scalar SimpleScenario.node[17].nic.mac1609_4 ReceivedBroadcasts 114
scalar SimpleScenario.node[17].nic.mac1609_4 SentPackets 253
scalar SimpleScenario.node[17].nic.mac1609_4 SentAcknowledgements 0
scalar SimpleScenario.node[17].nic.mac1609_4 SNIRLostPackets 211
scalar SimpleScenario.node[17].nic.mac1609_4 RXTXLostPackets 0
scalar SimpleScenario.node[17].nic.mac1609_4 TotalLostPackets 211
scalar SimpleScenario.node[17].nic.mac1609_4 DroppedPacketsInMac 0
scalar SimpleScenario.node[17].nic.mac1609_4 TooLittleTime 0
scalar SimpleScenario.node[17].nic.mac1609_4 TimesIntoBackoff 253
scalar SimpleScenario.node[17].nic.mac1609_4 SlotsBackoff 1853
scalar SimpleScenario.node[17].nic.mac1609_4 NumInternalContention 0
scalar SimpleScenario.node[17].nic.mac1609_4 totalBusyTime 0.060365
scalar SimpleScenario.node[18].appl generatedWSMs 0
scalar SimpleScenario.node[18].appl receivedWSMs 0
scalar SimpleScenario.node[18].appl generatedBSMs 268
scalar SimpleScenario.node[18].appl receivedBSMs 140
scalar SimpleScenario.node[18].nic.phy80211p busyTime 0.00013312
scalar SimpleScenario.node[18].nic.mac1609_4 ReceivedUnicastPackets 0
scalar SimpleScenario.node[18].nic.mac1609_4 ReceivedBroadcasts 140
scalar SimpleScenario.node[18].nic.mac1609_4 SentPackets 268
scalar SimpleScenario.node[18].nic.mac1609_4 SentAcknowledgements 0
scalar SimpleScenario.node[18].nic.mac1609_4 SNIRLostPackets 116
scalar SimpleScenario.node[18].nic.mac1609_4 RXTXLostPackets 0
scalar SimpleScenario.node[18].nic.mac1609_4 TotalLostPackets 116
scalar SimpleScenario.node[18].nic.mac1609_4 DroppedPacketsInMac 0
scalar SimpleScenario.node[18].nic.mac1609_4 TooLittleTime 0
scalar SimpleScenario.node[18].nic.mac1609_4 TimesIntoBackoff 268
scalar SimpleScenario.node[18].nic.mac1609_4 SlotsBackoff 1921
scalar SimpleScenario.node[18].nic.mac1609_4 NumInternalContention 0
scalar SimpleScenario.node[18].nic.mac1609_4 totalBusyTime 0.054764
scalar SimpleScenario.node[19].appl generatedWSMs 0
scalar SimpleScenario.node[19].appl receivedWSMs 0
scalar SimpleScenario.node[19].appl generatedBSMs 251
scalar SimpleScenario.node[19].appl receivedBSMs 124
scalar SimpleScenario.node[19].nic.phy80211p busyTime 0.00018668
scalar SimpleScenario.node[19].nic.mac1609_4 ReceivedUnicastPackets 0
scalar SimpleScenario.node[19].nic.mac1609_4 ReceivedBroadcasts 124
scalar SimpleScenario.node[19].nic.mac1609_4 SentPackets 251
scalar SimpleScenario.node[19].nic.mac1609_4 SentAcknowledgements 0
scalar SimpleScenario.node[19].nic.mac1609_4 SNIRLostPackets 235
scalar SimpleScenario.node[19].nic.mac1609_4 RXTXLostPackets 0
scalar SimpleScenario.node[19].nic.mac1609_4 TotalLostPackets 235
scalar SimpleScenario.node[19].nic.mac1609_4 DroppedPacketsInMac 0
scalar SimpleScenario.node[19].nic.mac1609_4 TooLittleTime 0
scalar SimpleScenario.node[19].nic.mac1609_4 TimesIntoBackoff 251
scalar SimpleScenario.node[19].nic.mac1609_4 SlotsBackoff 1798
scalar SimpleScenario.node[19].nic.mac1609_4 NumInternalContention 0
scalar SimpleScenario.node[19].nic.mac1609_4 totalBusyTime 0.063691
scalar SimpleScenario.node[20].appl generatedWSMs 0
scalar SimpleScenario.node[20].appl receivedWSMs 0
scalar SimpleScenario.node[20].appl generatedBSMs 319
scalar SimpleScenario.node[20].appl receivedBSMs 276
scalar SimpleScenario.node[20].nic.phy80211p busyTime 0.00025792
scalar SimpleScenario.node[20].nic.mac1609_4 ReceivedUnicastPackets 0
scalar SimpleScenario.node[20].nic.mac1609_4 ReceivedBroadcasts 276
scalar SimpleScenario.node[20].nic.mac1609_4 SentPackets 319
scalar SimpleScenario.node[20].nic.mac1609_4 SentAcknowledgements 0
scalar SimpleScenario.node[20].nic.mac1609_4 SNIRLostPackets 220
scalar SimpleScenario.node[20].nic.mac1609_4 RXTXLostPackets 0
scalar SimpleScenario.node[20].nic.mac1609_4 TotalLostPackets 220
scalar SimpleScenario.node[20].nic.mac1609_4 DroppedPacketsInMac 0
scalar SimpleScenario.node[20].nic.mac1609_4 TooLittleTime 0
scalar SimpleScenario.node[20].nic.mac1609_4 TimesIntoBackoff 319
scalar SimpleScenario.node[20].nic.mac1609_4 SlotsBackoff 2298
scalar SimpleScenario.node[20].nic.mac1609_4 NumInternalContention 0
scalar SimpleScenario.node[20].nic.mac1609_4 totalBusyTime 0.085079
scalar SimpleScenario.node[21].appl generatedWSMs 0
scalar SimpleScenario.node[21].appl receivedWSMs 0
scalar SimpleScenario.node[21].appl generatedBSMs 215
scalar SimpleScenario.node[21].appl receivedBSMs 30
scalar SimpleScenario.node[21].nic.phy80211p busyTime 6.292e-05
scalar SimpleScenario.node[21].nic.mac1609_4 ReceivedUnicastPackets 0
scalar SimpleScenario.node[21].nic.mac1609_4 ReceivedBroadcasts 30
scalar SimpleScenario.node[21].nic.mac1609_4 SentPackets 215
scalar SimpleScenario.node[21].nic.mac1609_4 SentAcknowledgements 0
scalar SimpleScenario.node[21].nic.mac1609_4 SNIRLostPackets 91
scalar SimpleScenario.node[21].nic.mac1609_4 RXTXLostPackets 0
scalar SimpleScenario.node[21].nic.mac1609_4 TotalLostPackets 91
scalar SimpleScenario.node[21].nic.mac1609_4 DroppedPacketsInMac 0
scalar SimpleScenario.node[21].nic.mac1609_4 TooLittleTime 0
scalar SimpleScenario.node[21].nic.mac1609_4 TimesIntoBackoff 215
scalar SimpleScenario.node[21].nic.mac1609_4 SlotsBackoff 1683
scalar SimpleScenario.node[21].nic.mac1609_4 NumInternalContention 0
scalar SimpleScenario.node[21].nic.mac1609_4 totalBusyTime 0.035159
scalar SimpleScenario.node[22].appl generatedWSMs 0
scalar SimpleScenario.node[22].appl receivedWSMs 0
scalar SimpleScenario.node[22].appl generatedBSMs 266
scalar SimpleScenario.node[22].appl receivedBSMs 177
scalar SimpleScenario.node[22].nic.phy80211p busyTime 0.0002808
scalar SimpleScenario.node[22].nic.mac1609_4 ReceivedUnicastPackets 0
scalar SimpleScenario.node[22].nic.mac1609_4 ReceivedBroadcasts 177
scalar SimpleScenario.node[22].nic.mac1609_4 SentPackets 266
scalar SimpleScenario.node[22].nic.mac1609_4 SentAcknowledgements 0
scalar SimpleScenario.node[22].nic.mac1609_4 SNIRLostPackets 363
scalar SimpleScenario.node[22].nic.mac1609_4 RXTXLostPackets 0
scalar SimpleScenario.node[22].nic.mac1609_4 TotalLostPackets 363
scalar SimpleScenario.node[22].nic.mac1609_4 DroppedPacketsInMac 0
scalar SimpleScenario.node[22].nic.mac1609_4 TooLittleTime 0
scalar SimpleScenario.node[22].nic.mac1609_4 TimesIntoBackoff 266
scalar SimpleScenario.node[22].nic.mac1609_4 SlotsBackoff 2043
scalar SimpleScenario.node[22].nic.mac1609_4 NumInternalContention 0
scalar SimpleScenario.node[22].nic.mac1609_4 totalBusyTime 0.083778
scalar SimpleScenario.node[23].appl generatedWSMs 0
scalar SimpleScenario.node[23].appl receivedWSMs 0
scalar SimpleScenario.node[23].appl generatedBSMs 266
scalar SimpleScenario.node[23].appl receivedBSMs 170
scalar SimpleScenario.node[23].nic.phy80211p busyTime 0.00020436
scalar SimpleScenario.node[23].nic.mac1609_4 ReceivedUnicastPackets 0
scalar SimpleScenario.node[23].nic.mac1609_4 ReceivedBroadcasts 170
scalar SimpleScenario.node[23].nic.mac1609_4 SentPackets 266
scalar SimpleScenario.node[23].nic.mac1609_4 SentAcknowledgements 0
scalar SimpleScenario.node[23].nic.mac1609_4 SNIRLostPackets 223
scalar SimpleScenario.node[23].nic.mac1609_4 RXTXLostPackets 0
scalar SimpleScenario.node[23].nic.mac1609_4 TotalLostPackets 223
scalar SimpleScenario.node[23].nic.mac1609_4 DroppedPacketsInMac 0
scalar SimpleScenario.node[23].nic.mac1609_4 TooLittleTime 0
scalar SimpleScenario.node[23].nic.mac1609_4 TimesIntoBackoff 266
scalar SimpleScenario.node[23].nic.mac1609_4 SlotsBackoff 2055
scalar SimpleScenario.node[23].nic.mac1609_4 NumInternalContention 0
scalar SimpleScenario.node[23].nic.mac1609_4 totalBusyTime 0.068802
scalar SimpleScenario.node[24].appl generatedWSMs 0
scalar SimpleScenario.node[24].appl receivedWSMs 0
scalar SimpleScenario.node[24].appl generatedBSMs 240
scalar SimpleScenario.node[24].appl receivedBSMs 91
scalar SimpleScenario.node[24].nic.phy80211p busyTime 0.00013364
scalar SimpleScenario.node[24].nic.mac1609_4 ReceivedUnicastPackets 0
scalar SimpleScenario.node[24].nic.mac1609_4 ReceivedBroadcasts 91
scalar SimpleScenario.node[24].nic.mac1609_4 SentPackets 240
scalar SimpleScenario.node[24].nic.mac1609_4 SentAcknowledgements 0
scalar SimpleScenario.node[24].nic.mac1609_4 SNIRLostPackets 166
scalar SimpleScenario.node[24].nic.mac1609_4 RXTXLostPackets 0
scalar SimpleScenario.node[24].nic.mac1609_4 TotalLostPackets 166
scalar SimpleScenario.node[24].nic.mac1609_4 DroppedPacketsInMac 0
scalar SimpleScenario.node[24].nic.mac1609_4 TooLittleTime 0
scalar SimpleScenario.node[24].nic.mac1609_4 TimesIntoBackoff 240
scalar SimpleScenario.node[24].nic.mac1609_4 SlotsBackoff 1815
scalar SimpleScenario.node[24].nic.mac1609_4 NumInternalContention 0
scalar SimpleScenario.node[24].nic.mac1609_4 totalBusyTime 0.051928
scalar SimpleScenario.node[25].appl generatedWSMs 0
scalar SimpleScenario.node[25].appl receivedWSMs 0
scalar SimpleScenario.node[25].appl generatedBSMs 251
scalar SimpleScenario.node[25].appl receivedBSMs 121
scalar SimpleScenario.node[25].nic.phy80211p busyTime 0.00013936
scalar SimpleScenario.node[25].nic.mac1609_4 ReceivedUnicastPackets 0
scalar SimpleScenario.node[25].nic.mac1609_4 ReceivedBroadcasts 121
scalar SimpleScenario.node[25].nic.mac1609_4 SentPackets 251
scalar SimpleScenario.node[25].nic.mac1609_4 SentAcknowledgements 0
scalar SimpleScenario.node[25].nic.mac1609_4 SNIRLostPackets 147
scalar SimpleScenario.node[25].nic.mac1609_4 RXTXLostPackets 0
scalar SimpleScenario.node[25].nic.mac1609_4 TotalLostPackets 147
scalar SimpleScenario.node[25].nic.mac1609_4 DroppedPacketsInMac 0
scalar SimpleScenario.node[25].nic.mac1609_4 TooLittleTime 0
scalar SimpleScenario.node[25].nic.mac1609_4 TimesIntoBackoff 251
scalar SimpleScenario.node[25].nic.mac1609_4 SlotsBackoff 2021
scalar SimpleScenario.node[25].nic.mac1609_4 NumInternalContention 0
scalar SimpleScenario.node[25].nic.mac1609_4 totalBusyTime 0.054227
scalar SimpleScenario.node[26].appl generatedWSMs 0
scalar SimpleScenario.node[26].appl receivedWSMs 0
scalar SimpleScenario.node[26].appl generatedBSMs 270
scalar SimpleScenario.node[26].appl receivedBSMs 139
scalar SimpleScenario.node[26].nic.phy80211p busyTime 0.0001976
scalar SimpleScenario.node[26].nic.mac1609_4 ReceivedUnicastPackets 0
scalar SimpleScenario.node[26].nic.mac1609_4 ReceivedBroadcasts 139
scalar SimpleScenario.node[26].nic.mac1609_4 SentPackets 270
scalar SimpleScenario.node[26].nic.mac1609_4 SentAcknowledgements 0
scalar SimpleScenario.node[26].nic.mac1609_4 SNIRLostPackets 241
scalar SimpleScenario.node[26].nic.mac1609_4 RXTXLostPackets 0
scalar SimpleScenario.node[26].nic.mac1609_4 TotalLostPackets 241
scalar SimpleScenario.node[26].nic.mac1609_4 DroppedPacketsInMac 0
scalar SimpleScenario.node[26].nic.mac1609_4 TooLittleTime 0
scalar SimpleScenario.node[26].nic.mac1609_4 TimesIntoBackoff 270
scalar SimpleScenario.node[26].nic.mac1609_4 SlotsBackoff 2012
scalar SimpleScenario.node[26].nic.mac1609_4 NumInternalContention 0
scalar SimpleScenario.node[26].nic.mac1609_4 totalBusyTime 0.06787
scalar SimpleScenario.node[27].appl generatedWSMs 0
scalar SimpleScenario.node[27].appl receivedWSMs 0
scalar SimpleScenario.node[27].appl generatedBSMs 305
scalar SimpleScenario.node[27].appl receivedBSMs 264
scalar SimpleScenario.node[27].nic.phy80211p busyTime 0.0002756
scalar SimpleScenario.node[27].nic.mac1609_4 ReceivedUnicastPackets 0
scalar SimpleScenario.node[27].nic.mac1609_4 ReceivedBroadcasts 264
scalar SimpleScenario.node[27].nic.mac1609_4 SentPackets 305
scalar SimpleScenario.node[27].nic.mac1609_4 SentAcknowledgements 0
scalar SimpleScenario.node[27].nic.mac1609_4 SNIRLostPackets 266
scalar SimpleScenario.node[27].nic.mac1609_4 RXTXLostPackets 0
scalar SimpleScenario.node[27].nic.mac1609_4 TotalLostPackets 266
scalar SimpleScenario.node[27].nic.mac1609_4 DroppedPacketsInMac 0
scalar SimpleScenario.node[27].nic.mac1609_4 TooLittleTime 0
scalar SimpleScenario.node[27].nic.mac1609_4 TimesIntoBackoff 305
scalar SimpleScenario.node[27].nic.mac1609_4 SlotsBackoff 2314
scalar SimpleScenario.node[27].nic.mac1609_4 NumInternalContention 0
scalar SimpleScenario.node[27].nic.mac1609_4 totalBusyTime 0.087145
scalar SimpleScenario.node[28].appl generatedWSMs 0
scalar SimpleScenario.node[28].appl receivedWSMs 0
scalar SimpleScenario.node[28].appl generatedBSMs 280
scalar SimpleScenario.node[28].appl receivedBSMs 170
scalar SimpleScenario.node[28].nic.phy80211p busyTime 0.00022464
scalar SimpleScenario.node[28].nic.mac1609_4 ReceivedUnicastPackets 0
scalar SimpleScenario.node[28].nic.mac1609_4 ReceivedBroadcasts 170
scalar SimpleScenario.node[28].nic.mac1609_4 SentPackets 280
scalar SimpleScenario.node[28].nic.mac1609_4 SentAcknowledgements 0
scalar SimpleScenario.node[28].nic.mac1609_4 SNIRLostPackets 262
scalar SimpleScenario.node[28].nic.mac1609_4 RXTXLostPackets 0
scalar SimpleScenario.node[28].nic.mac1609_4 TotalLostPackets 262
scalar SimpleScenario.node[28].nic.mac1609_4 DroppedPacketsInMac 0
scalar SimpleScenario.node[28].nic.mac1609_4 TooLittleTime 0
scalar SimpleScenario.node[28].nic.mac1609_4 TimesIntoBackoff 280
scalar SimpleScenario.node[28].nic.mac1609_4 SlotsBackoff 2183
scalar SimpleScenario.node[28].nic.mac1609_4 NumInternalContention 0
scalar SimpleScenario.node[28].nic.mac1609_4 totalBusyTime 0.074328
scalar SimpleScenario.node[29].appl generatedWSMs 0
scalar SimpleScenario.node[29].appl receivedWSMs 0
scalar SimpleScenario.node[29].appl generatedBSMs 230
scalar SimpleScenario.node[29].appl receivedBSMs 61
scalar SimpleScenario.node[29].nic.phy80211p busyTime 0.000117
scalar SimpleScenario.node[29].nic.mac1609_4 ReceivedUnicastPackets 0
scalar SimpleScenario.node[29].nic.mac1609_4 ReceivedBroadcasts 61
scalar SimpleScenario.node[29].nic.mac1609_4 SentPackets 230
scalar SimpleScenario.node[29].nic.mac1609_4 SentAcknowledgements 0
scalar SimpleScenario.node[29].nic.mac1609_4 SNIRLostPackets 164
scalar SimpleScenario.node[29].nic.mac1609_4 RXTXLostPackets 0
scalar SimpleScenario.node[29].nic.mac1609_4 TotalLostPackets 164
scalar SimpleScenario.node[29].nic.mac1609_4 DroppedPacketsInMac 0
scalar SimpleScenario.node[29].nic.mac1609_4 TooLittleTime 0
scalar SimpleScenario.node[29].nic.mac1609_4 TimesIntoBackoff 230
scalar SimpleScenario.node[29].nic.mac1609_4 SlotsBackoff 1651
scalar SimpleScenario.node[29].nic.mac1609_4 NumInternalContention 0
scalar SimpleScenario.node[29].nic.mac1609_4 totalBusyTime 0.04755
scalar SimpleScenario.node[30].appl generatedWSMs 0
scalar SimpleScenario.node[30].appl receivedWSMs 0
scalar SimpleScenario.node[30].appl generatedBSMs 271
scalar SimpleScenario.node[30].appl receivedBSMs 147
scalar SimpleScenario.node[30].nic.phy80211p busyTime 0.00026312
scalar SimpleScenario.node[30].nic.mac1609_4 ReceivedUnicastPackets 0
scalar SimpleScenario.node[30].nic.mac1609_4 ReceivedBroadcasts 147
scalar SimpleScenario.node[30].nic.mac1609_4 SentPackets 271
scalar SimpleScenario.node[30].nic.mac1609_4 SentAcknowledgements 0
scalar SimpleScenario.node[30].nic.mac1609_4 SNIRLostPackets 359
scalar SimpleScenario.node[30].nic.mac1609_4 RXTXLostPackets 0
scalar SimpleScenario.node[30].nic.mac1609_4 TotalLostPackets 359
scalar SimpleScenario.node[30].nic.mac1609_4 DroppedPacketsInMac 0
scalar SimpleScenario.node[30].nic.mac1609_4 TooLittleTime 0
scalar SimpleScenario.node[30].nic.mac1609_4 TimesIntoBackoff 271
scalar SimpleScenario.node[30].nic.mac1609_4 SlotsBackoff 1981
scalar SimpleScenario.node[30].nic.mac1609_4 NumInternalContention 0
scalar SimpleScenario.node[30].nic.mac1609_4 totalBusyTime 0.081079
scalar SimpleScenario.node[31].appl generatedWSMs 0
scalar SimpleScenario.node[31].appl receivedWSMs 0
scalar SimpleScenario.node[31].appl generatedBSMs 251
scalar SimpleScenario.node[31].appl receivedBSMs 125
scalar SimpleScenario.node[31].nic.phy80211p busyTime 0.0002106
scalar SimpleScenario.node[31].nic.mac1609_4 ReceivedUnicastPackets 0
scalar SimpleScenario.node[31].nic.mac1609_4 ReceivedBroadcasts 125
scalar SimpleScenario.node[31].nic.mac1609_4 SentPackets 251
scalar SimpleScenario.node[31].nic.mac1609_4 SentAcknowledgements 0
scalar SimpleScenario.node[31].nic.mac1609_4 SNIRLostPackets 280
scalar SimpleScenario.node[31].nic.mac1609_4 RXTXLostPackets 0
scalar SimpleScenario.node[31].nic.mac1609_4 TotalLostPackets 280
scalar SimpleScenario.node[31].nic.mac1609_4 DroppedPacketsInMac 0
scalar SimpleScenario.node[31].nic.mac1609_4 TooLittleTime 0
scalar SimpleScenario.node[31].nic.mac1609_4 TimesIntoBackoff 251
scalar SimpleScenario.node[31].nic.mac1609_4 SlotsBackoff 1856
scalar SimpleScenario.node[31].nic.mac1609_4 NumInternalContention 0
scalar SimpleScenario.node[31].nic.mac1609_4 totalBusyTime 0.067435
scalar SimpleScenario.node[32].appl generatedWSMs 0
scalar SimpleScenario.node[32].appl receivedWSMs 0
scalar SimpleScenario.node[32].appl generatedBSMs 328
scalar SimpleScenario.node[32].appl receivedBSMs 297
scalar SimpleScenario.node[32].nic.phy80211p busyTime 0.0002574
scalar SimpleScenario.node[32].nic.mac1609_4 ReceivedUnicastPackets 0
scalar SimpleScenario.node[32].nic.mac1609_4 ReceivedBroadcasts 297
scalar SimpleScenario.node[32].nic.mac1609_4 SentPackets 328
scalar SimpleScenario.node[32].nic.mac1609_4 SentAcknowledgements 0
scalar SimpleScenario.node[32].nic.mac1609_4 SNIRLostPackets 198
scalar SimpleScenario.node[32].nic.mac1609_4 RXTXLostPackets 0
scalar SimpleScenario.node[32].nic.mac1609_4 TotalLostPackets 198
scalar SimpleScenario.node[32].nic.mac1609_4 DroppedPacketsInMac 0
scalar SimpleScenario.node[32].nic.mac1609_4 TooLittleTime 0
scalar SimpleScenario.node[32].nic.mac1609_4 TimesIntoBackoff 328
scalar SimpleScenario.node[32].nic.mac1609_4 SlotsBackoff 2462
scalar SimpleScenario.node[32].nic.mac1609_4 NumInternalContention 0
scalar SimpleScenario.node[32].nic.mac1609_4 totalBusyTime 0.08592
scalar SimpleScenario.node[33].appl generatedWSMs 0
scalar SimpleScenario.node[33].appl receivedWSMs 0
scalar SimpleScenario.node[33].appl generatedBSMs 245
scalar SimpleScenario.node[33].appl receivedBSMs 87
scalar SimpleScenario.node[33].nic.phy80211p busyTime 0.00011544
scalar SimpleScenario.node[33].nic.mac1609_4 ReceivedUnicastPackets 0
scalar SimpleScenario.node[33].nic.mac1609_4 ReceivedBroadcasts 87
scalar SimpleScenario.node[33].nic.mac1609_4 SentPackets 245
scalar SimpleScenario.node[33].nic.mac1609_4 SentAcknowledgements 0
scalar SimpleScenario.node[33].nic.mac1609_4 SNIRLostPackets 135
scalar SimpleScenario.node[33].nic.mac1609_4 RXTXLostPackets 0
scalar SimpleScenario.node[33].nic.mac1609_4 TotalLostPackets 135
scalar SimpleScenario.node[33].nic.mac1609_4 DroppedPacketsInMac 0
scalar SimpleScenario.node[33].nic.mac1609_4 TooLittleTime 0
scalar SimpleScenario.node[33].nic.mac1609_4 TimesIntoBackoff 245
scalar SimpleScenario.node[33].nic.mac1609_4 SlotsBackoff 1983
scalar SimpleScenario.node[33].nic.mac1609_4 NumInternalContention 0
scalar SimpleScenario.node[33].nic.mac1609_4 totalBusyTime 0.048813
scalar SimpleScenario.node[34].appl generatedWSMs 0
scalar SimpleScenario.node[34].appl receivedWSMs 0
scalar SimpleScenario.node[34].appl generatedBSMs 305
scalar SimpleScenario.node[34].appl receivedBSMs 241
scalar SimpleScenario.node[34].nic.phy80211p busyTime 0.00027092
scalar SimpleScenario.node[34].nic.mac1609_4 ReceivedUnicastPackets 0
scalar SimpleScenario.node[34].nic.mac1609_4 ReceivedBroadcasts 241
scalar SimpleScenario.node[34].nic.mac1609_4 SentPackets 305
scalar SimpleScenario.node[34].nic.mac1609_4 SentAcknowledgements 0
scalar SimpleScenario.node[34].nic.mac1609_4 SNIRLostPackets 280
scalar SimpleScenario.node[34].nic.mac1609_4 RXTXLostPackets 0
scalar SimpleScenario.node[34].nic.mac1609_4 TotalLostPackets 280
scalar SimpleScenario.node[34].nic.mac1609_4 DroppedPacketsInMac 0
scalar SimpleScenario.node[34].nic.mac1609_4 TooLittleTime 0
scalar SimpleScenario.node[34].nic.mac1609_4 TimesIntoBackoff 305
scalar SimpleScenario.node[34].nic.mac1609_4 SlotsBackoff 2163
scalar SimpleScenario.node[34].nic.mac1609_4 NumInternalContention 0
scalar SimpleScenario.node[34].nic.mac1609_4 totalBusyTime 0.086209
scalar SimpleScenario.node[35].appl generatedWSMs 0
scalar SimpleScenario.node[35].appl receivedWSMs 0
scalar SimpleScenario.node[35].appl generatedBSMs 291
scalar SimpleScenario.node[35].appl receivedBSMs 214
scalar SimpleScenario.node[35].nic.phy80211p busyTime 0.000299
scalar SimpleScenario.node[35].nic.mac1609_4 ReceivedUnicastPackets 0
scalar SimpleScenario.node[35].nic.mac1609_4 ReceivedBroadcasts 214
scalar SimpleScenario.node[35].nic.mac1609_4 SentPackets 291
scalar SimpleScenario.node[35].nic.mac1609_4 SentAcknowledgements 0
scalar SimpleScenario.node[35].nic.mac1609_4 SNIRLostPackets 361
scalar SimpleScenario.node[35].nic.mac1609_4 RXTXLostPackets 0
scalar SimpleScenario.node[35].nic.mac1609_4 TotalLostPackets 361
scalar SimpleScenario.node[35].nic.mac1609_4 DroppedPacketsInMac 0
scalar SimpleScenario.node[35].nic.mac1609_4 TooLittleTime 0
scalar SimpleScenario.node[35].nic.mac1609_4 TimesIntoBackoff 291
scalar SimpleScenario.node[35].nic.mac1609_4 SlotsBackoff 2342
scalar SimpleScenario.node[35].nic.mac1609_4 NumInternalContention 0
scalar SimpleScenario.node[35].nic.mac1609_4 totalBusyTime 0.090355
scalar SimpleScenario.node[36].appl generatedWSMs 0
scalar SimpleScenario.node[36].appl receivedWSMs 0
scalar SimpleScenario.node[36].appl generatedBSMs 245
scalar SimpleScenario.node[36].appl receivedBSMs 100
scalar SimpleScenario.node[36].nic.phy80211p busyTime 0.00020904
scalar SimpleScenario.node[36].nic.mac1609_4 ReceivedUnicastPackets 0
scalar SimpleScenario.node[36].nic.mac1609_4 ReceivedBroadcasts 100
scalar SimpleScenario.node[36].nic.mac1609_4 SentPackets 245
scalar SimpleScenario.node[36].nic.mac1609_4 SentAcknowledgements 0
scalar SimpleScenario.node[36].nic.mac1609_4 SNIRLostPackets 302
scalar SimpleScenario.node[36].nic.mac1609_4 RXTXLostPackets 0
scalar SimpleScenario.node[36].nic.mac1609_4 TotalLostPackets 302
scalar SimpleScenario.node[36].nic.mac1609_4 DroppedPacketsInMac 0
scalar SimpleScenario.node[36].nic.mac1609_4 TooLittleTime 0
scalar SimpleScenario.node[36].nic.mac1609_4 TimesIntoBackoff 245
scalar SimpleScenario.node[36].nic.mac1609_4 SlotsBackoff 1878
scalar SimpleScenario.node[36].nic.mac1609_4 NumInternalContention 0
scalar SimpleScenario.node[36].nic.mac1609_4 totalBusyTime 0.067533
scalar SimpleScenario.node[37].appl generatedWSMs 0
scalar SimpleScenario.node[37].appl receivedWSMs 0
scalar SimpleScenario.node[37].appl generatedBSMs 233
scalar SimpleScenario.node[37].appl receivedBSMs 66
scalar SimpleScenario.node[37].nic.phy80211p busyTime 0.00023868
scalar SimpleScenario.node[37].nic.mac1609_4 ReceivedUnicastPackets 0
scalar SimpleScenario.node[37].nic.mac1609_4 ReceivedBroadcasts 66
scalar SimpleScenario.node[37].nic.mac1609_4 SentPackets 233
scalar SimpleScenario.node[37].nic.mac1609_4 SentAcknowledgements 0
scalar SimpleScenario.node[37].nic.mac1609_4 SNIRLostPackets 393
scalar SimpleScenario.node[37].nic.mac1609_4 RXTXLostPackets 0
scalar SimpleScenario.node[37].nic.mac1609_4 TotalLostPackets 393
scalar SimpleScenario.node[37].nic.mac1609_4 DroppedPacketsInMac 0
scalar SimpleScenario.node[37].nic.mac1609_4 TooLittleTime 0
scalar SimpleScenario.node[37].nic.mac1609_4 TimesIntoBackoff 233
scalar SimpleScenario.node[37].nic.mac1609_4 SlotsBackoff 1758
scalar SimpleScenario.node[37].nic.mac1609_4 NumInternalContention 0
scalar SimpleScenario.node[37].nic.mac1609_4 totalBusyTime 0.072201
scalar SimpleScenario.node[38].appl generatedWSMs 0
scalar SimpleScenario.node[38].appl receivedWSMs 0
scalar SimpleScenario.node[38].appl generatedBSMs 275
scalar SimpleScenario.node[38].appl receivedBSMs 190
scalar SimpleScenario.node[38].nic.phy80211p busyTime 0.0002938
scalar SimpleScenario.node[38].nic.mac1609_4 ReceivedUnicastPackets 0
scalar SimpleScenario.node[38].nic.mac1609_4 ReceivedBroadcasts 190
scalar SimpleScenario.node[38].nic.mac1609_4 SentPackets 275
scalar SimpleScenario.node[38].nic.mac1609_4 SentAcknowledgements 0
scalar SimpleScenario.node[38].nic.mac1609_4 SNIRLostPackets 375
scalar SimpleScenario.node[38].nic.mac1609_4 RXTXLostPackets 0
scalar SimpleScenario.node[38].nic.mac1609_4 TotalLostPackets 375
scalar SimpleScenario.node[38].nic.mac1609_4 DroppedPacketsInMac 0
scalar SimpleScenario.node[38].nic.mac1609_4 TooLittleTime 0
scalar SimpleScenario.node[38].nic.mac1609_4 TimesIntoBackoff 275
scalar SimpleScenario.node[38].nic.mac1609_4 SlotsBackoff 2010
scalar SimpleScenario.node[38].nic.mac1609_4 NumInternalContention 0
scalar SimpleScenario.node[38].nic.mac1609_4 totalBusyTime 0.087635
scalar SimpleScenario.node[39].appl generatedWSMs 0
scalar SimpleScenario.node[39].appl receivedWSMs 0
scalar SimpleScenario.node[39].appl generatedBSMs 285
scalar SimpleScenario.node[39].appl receivedBSMs 198
scalar SimpleScenario.node[39].nic.phy80211p busyTime 0.000221
scalar SimpleScenario.node[39].nic.mac1609_4 ReceivedUnicastPackets 0
scalar SimpleScenario.node[39].nic.mac1609_4 ReceivedBroadcasts 198
scalar SimpleScenario.node[39].nic.mac1609_4 SentPackets 285
scalar SimpleScenario.node[39].nic.mac1609_4 SentAcknowledgements 0
scalar SimpleScenario.node[39].nic.mac1609_4 SNIRLostPackets 227
scalar SimpleScenario.node[39].nic.mac1609_4 RXTXLostPackets 0
scalar SimpleScenario.node[39].nic.mac1609_4 TotalLostPackets 227
scalar SimpleScenario.node[39].nic.mac1609_4 DroppedPacketsInMac 0
scalar SimpleScenario.node[39].nic.mac1609_4 TooLittleTime 0
scalar SimpleScenario.node[39].nic.mac1609_4 TimesIntoBackoff 285
scalar SimpleScenario.node[39].nic.mac1609_4 SlotsBackoff 1966
scalar SimpleScenario.node[39].nic.mac1609_4 NumInternalContention 0
scalar SimpleScenario.node[39].nic.mac1609_4 totalBusyTime 0.074125
scalar SimpleScenario.node[40].appl generatedWSMs 0
scalar SimpleScenario.node[40].appl receivedWSMs 0
scalar SimpleScenario.node[40].appl generatedBSMs 234
scalar SimpleScenario.node[40].appl receivedBSMs 67
scalar SimpleScenario.node[40].nic.phy80211p busyTime 0.00021892
scalar SimpleScenario.node[40].nic.mac1609_4 ReceivedUnicastPackets 0
scalar SimpleScenario.node[40].nic.mac1609_4 ReceivedBroadcasts 67
scalar SimpleScenario.node[40].nic.mac1609_4 SentPackets 234
scalar SimpleScenario.node[40].nic.mac1609_4 SentAcknowledgements 0
scalar SimpleScenario.node[40].nic.mac1609_4 SNIRLostPackets 354
scalar SimpleScenario.node[40].nic.mac1609_4 RXTXLostPackets 0
scalar SimpleScenario.node[40].nic.mac1609_4 TotalLostPackets 354
scalar SimpleScenario.node[40].nic.mac1609_4 DroppedPacketsInMac 0
scalar SimpleScenario.node[40].nic.mac1609_4 TooLittleTime 0
scalar SimpleScenario.node[40].nic.mac1609_4 TimesIntoBackoff 234
scalar SimpleScenario.node[40].nic.mac1609_4 SlotsBackoff 1853
scalar SimpleScenario.node[40].nic.mac1609_4 NumInternalContention 0
scalar SimpleScenario.node[40].nic.mac1609_4 totalBusyTime 0.068354
scalar SimpleScenario.node[41].appl generatedWSMs 0
scalar SimpleScenario.node[41].appl receivedWSMs 0
scalar SimpleScenario.node[41].appl generatedBSMs 269
scalar SimpleScenario.node[41].appl receivedBSMs 149
scalar SimpleScenario.node[41].nic.phy80211p busyTime 0.00018408
scalar SimpleScenario.node[41].nic.mac1609_4 ReceivedUnicastPackets 0
scalar SimpleScenario.node[41].nic.mac1609_4 ReceivedBroadcasts 149
scalar SimpleScenario.node[41].nic.mac1609_4 SentPackets 269
scalar SimpleScenario.node[41].nic.mac1609_4 SentAcknowledgements 0
scalar SimpleScenario.node[41].nic.mac1609_4 SNIRLostPackets 205
scalar SimpleScenario.node[41].nic.mac1609_4 RXTXLostPackets 0
scalar SimpleScenario.node[41].nic.mac1609_4 TotalLostPackets 205
scalar SimpleScenario.node[41].nic.mac1609_4 DroppedPacketsInMac 0
scalar SimpleScenario.node[41].nic.mac1609_4 TooLittleTime 0
scalar SimpleScenario.node[41].nic.mac1609_4 TimesIntoBackoff 269
scalar SimpleScenario.node[41].nic.mac1609_4 SlotsBackoff 1916
scalar SimpleScenario.node[41].nic.mac1609_4 NumInternalContention 0
scalar SimpleScenario.node[41].nic.mac1609_4 totalBusyTime 0.065061
scalar SimpleScenario.node[42].appl generatedWSMs 0
scalar SimpleScenario.node[42].appl receivedWSMs 0
scalar SimpleScenario.node[42].appl generatedBSMs 289
scalar SimpleScenario.node[42].appl receivedBSMs 195
scalar SimpleScenario.node[42].nic.phy80211p busyTime 0.0002106
scalar SimpleScenario.node[42].nic.mac1609_4 ReceivedUnicastPackets 0
scalar SimpleScenario.node[42].nic.mac1609_4 ReceivedBroadcasts 195
scalar SimpleScenario.node[42].nic.mac1609_4 SentPackets 289
scalar SimpleScenario.node[42].nic.mac1609_4 SentAcknowledgements 0
scalar SimpleScenario.node[42].nic.mac1609_4 SNIRLostPackets 210
scalar SimpleScenario.node[42].nic.mac1609_4 RXTXLostPackets 0
scalar SimpleScenario.node[42].nic.mac1609_4 TotalLostPackets 210
scalar SimpleScenario.node[42].nic.mac1609_4 DroppedPacketsInMac 0
scalar SimpleScenario.node[42].nic.mac1609_4 TooLittleTime 0
scalar SimpleScenario.node[42].nic.mac1609_4 TimesIntoBackoff 295
scalar SimpleScenario.node[42].nic.mac1609_4 SlotsBackoff 2085
scalar SimpleScenario.node[42].nic.mac1609_4 NumInternalContention 0
scalar SimpleScenario.node[42].nic.mac1609_4 totalBusyTime 0.072465
scalar SimpleScenario.node[43].appl generatedWSMs 0
scalar SimpleScenario.node[43].appl receivedWSMs 0
scalar SimpleScenario.node[43].appl generatedBSMs 325
scalar SimpleScenario.node[43].appl receivedBSMs 302
scalar SimpleScenario.node[43].nic.phy80211p busyTime 0.00028132
scalar SimpleScenario.node[43].nic.mac1609_4 ReceivedUnicastPackets 0
scalar SimpleScenario.node[43].nic.mac1609_4 ReceivedBroadcasts 302
scalar SimpleScenario.node[43].nic.mac1609_4 SentPackets 325
scalar SimpleScenario.node[43].nic.mac1609_4 SentAcknowledgements 0
scalar SimpleScenario.node[43].nic.mac1609_4 SNIRLostPackets 239
scalar SimpleScenario.node[43].nic.mac1609_4 RXTXLostPackets 0
scalar SimpleScenario.node[43].nic.mac1609_4 TotalLostPackets 239
scalar SimpleScenario.node[43].nic.mac1609_4 DroppedPacketsInMac 0
scalar SimpleScenario.node[43].nic.mac1609_4 TooLittleTime 0
scalar SimpleScenario.node[43].nic.mac1609_4 TimesIntoBackoff 325
scalar SimpleScenario.node[43].nic.mac1609_4 SlotsBackoff 2565
scalar SimpleScenario.node[43].nic.mac1609_4 NumInternalContention 0
scalar SimpleScenario.node[43].nic.mac1609_4 totalBusyTime 0.090389
scalar SimpleScenario.node[44].appl generatedWSMs 0
scalar SimpleScenario.node[44].appl receivedWSMs 0
scalar SimpleScenario.node[44].appl generatedBSMs 224
scalar SimpleScenario.node[44].appl receivedBSMs 64
scalar SimpleScenario.node[44].nic.phy80211p busyTime 0.000169
scalar SimpleScenario.node[44].nic.mac1609_4 ReceivedUnicastPackets 0
scalar SimpleScenario.node[44].nic.mac1609_4 ReceivedBroadcasts 64
scalar SimpleScenario.node[44].nic.mac1609_4 SentPackets 224
scalar SimpleScenario.node[44].nic.mac1609_4 SentAcknowledgements 0
scalar SimpleScenario.node[44].nic.mac1609_4 SNIRLostPackets 261
scalar SimpleScenario.node[44].nic.mac1609_4 RXTXLostPackets 0
scalar SimpleScenario.node[44].nic.mac1609_4 TotalLostPackets 261
scalar SimpleScenario.node[44].nic.mac1609_4 DroppedPacketsInMac 0
scalar SimpleScenario.node[44].nic.mac1609_4 TooLittleTime 0
scalar SimpleScenario.node[44].nic.mac1609_4 TimesIntoBackoff 224
scalar SimpleScenario.node[44].nic.mac1609_4 SlotsBackoff 1706
scalar SimpleScenario.node[44].nic.mac1609_4 NumInternalContention 0
scalar SimpleScenario.node[44].nic.mac1609_4 totalBusyTime 0.05732
scalar SimpleScenario.node[45].appl generatedWSMs 0
scalar SimpleScenario.node[45].appl receivedWSMs 0
scalar SimpleScenario.node[45].appl generatedBSMs 291
scalar SimpleScenario.node[45].appl receivedBSMs 231
scalar SimpleScenario.node[45].nic.phy80211p busyTime 0.00027664
scalar SimpleScenario.node[45].nic.mac1609_4 ReceivedUnicastPackets 0
scalar SimpleScenario.node[45].nic.mac1609_4 ReceivedBroadcasts 231
scalar SimpleScenario.node[45].nic.mac1609_4 SentPackets 291
scalar SimpleScenario.node[45].nic.mac1609_4 SentAcknowledgements 0
scalar SimpleScenario.node[45].nic.mac1609_4 SNIRLostPackets 301
scalar SimpleScenario.node[45].nic.mac1609_4 RXTXLostPackets 0
scalar SimpleScenario.node[45].nic.mac1609_4 TotalLostPackets 301
scalar SimpleScenario.node[45].nic.mac1609_4 DroppedPacketsInMac 0
scalar SimpleScenario.node[45].nic.mac1609_4 TooLittleTime 0
scalar SimpleScenario.node[45].nic.mac1609_4 TimesIntoBackoff 291
scalar SimpleScenario.node[45].nic.mac1609_4 SlotsBackoff 2050
scalar SimpleScenario.node[45].nic.mac1609_4 NumInternalContention 0
scalar SimpleScenario.node[45].nic.mac1609_4 totalBusyTime 0.085883
scalar SimpleScenario.node[46].appl generatedWSMs 0
scalar SimpleScenario.node[46].appl receivedWSMs 0
scalar SimpleScenario.node[46].appl generatedBSMs 289
scalar SimpleScenario.node[46].appl receivedBSMs 223
scalar SimpleScenario.node[46].nic.phy80211p busyTime 0.00026364
scalar SimpleScenario.node[46].nic.mac1609_4 ReceivedUnicastPackets 0
scalar SimpleScenario.node[46].nic.mac1609_4 ReceivedBroadcasts 223
scalar SimpleScenario.node[46].nic.mac1609_4 SentPackets 289
scalar SimpleScenario.node[46].nic.mac1609_4 SentAcknowledgements 0
scalar SimpleScenario.node[46].nic.mac1609_4 SNIRLostPackets 284
scalar SimpleScenario.node[46].nic.mac1609_4 RXTXLostPackets 0
scalar SimpleScenario.node[46].nic.mac1609_4 TotalLostPackets 284
scalar SimpleScenario.node[46].nic.mac1609_4 DroppedPacketsInMac 0
scalar SimpleScenario.node[46].nic.mac1609_4 TooLittleTime 0
scalar SimpleScenario.node[46].nic.mac1609_4 TimesIntoBackoff 289
scalar SimpleScenario.node[46].nic.mac1609_4 SlotsBackoff 2085
scalar SimpleScenario.node[46].nic.mac1609_4 NumInternalContention 0
scalar SimpleScenario.node[46].nic.mac1609_4 totalBusyTime 0.083073
scalar SimpleScenario.node[47].appl generatedWSMs 0
scalar SimpleScenario.node[47].appl receivedWSMs 0
scalar SimpleScenario.node[47].appl generatedBSMs 245
scalar SimpleScenario.node[47].appl receivedBSMs 102
scalar SimpleScenario.node[47].nic.phy80211p busyTime 0.000169
scalar SimpleScenario.node[47].nic.mac1609_4 ReceivedUnicastPackets 0
scalar SimpleScenario.node[47].nic.mac1609_4 ReceivedBroadcasts 102
scalar SimpleScenario.node[47].nic.mac1609_4 SentPackets 245
scalar SimpleScenario.node[47].nic.mac1609_4 SentAcknowledgements 0
scalar SimpleScenario.node[47].nic.mac1609_4 SNIRLostPackets 223
scalar SimpleScenario.node[47].nic.mac1609_4 RXTXLostPackets 0
scalar SimpleScenario.node[47].nic.mac1609_4 TotalLostPackets 223
scalar SimpleScenario.node[47].nic.mac1609_4 DroppedPacketsInMac 0
scalar SimpleScenario.node[47].nic.mac1609_4 TooLittleTime 0
scalar SimpleScenario.node[47].nic.mac1609_4 TimesIntoBackoff 245
scalar SimpleScenario.node[47].nic.mac1609_4 SlotsBackoff 1930
scalar SimpleScenario.node[47].nic.mac1609_4 NumInternalContention 0
scalar SimpleScenario.node[47].nic.mac1609_4 totalBusyTime 0.059525
scalar SimpleScenario.node[48].appl generatedWSMs 0
scalar SimpleScenario.node[48].appl receivedWSMs 0
scalar SimpleScenario.node[48].appl generatedBSMs 351
scalar SimpleScenario.node[48].appl receivedBSMs 352
scalar SimpleScenario.node[48].nic.phy80211p busyTime 0.00038948
scalar SimpleScenario.node[48].nic.mac1609_4 ReceivedUnicastPackets 0
scalar SimpleScenario.node[48].nic.mac1609_4 ReceivedBroadcasts 352
scalar SimpleScenario.node[48].nic.mac1609_4 SentPackets 351
scalar SimpleScenario.node[48].nic.mac1609_4 SentAcknowledgements 0
scalar SimpleScenario.node[48].nic.mac1609_4 SNIRLostPackets 397
scalar SimpleScenario.node[48].nic.mac1609_4 RXTXLostPackets 0
scalar SimpleScenario.node[48].nic.mac1609_4 TotalLostPackets 397
scalar SimpleScenario.node[48].nic.mac1609_4 DroppedPacketsInMac 0
scalar SimpleScenario.node[48].nic.mac1609_4 TooLittleTime 0
scalar SimpleScenario.node[48].nic.mac1609_4 TimesIntoBackoff 351
scalar SimpleScenario.node[48].nic.mac1609_4 SlotsBackoff 2630
scalar SimpleScenario.node[48].nic.mac1609_4 NumInternalContention 0
scalar SimpleScenario.node[48].nic.mac1609_4 totalBusyTime 0.114751
scalar SimpleScenario.node[49].appl generatedWSMs 0
scalar SimpleScenario.node[49].appl receivedWSMs 0
scalar SimpleScenario.node[49].appl generatedBSMs 231
scalar SimpleScenario.node[49].appl receivedBSMs 62
scalar SimpleScenario.node[49].nic.phy80211p busyTime 0.00010972
scalar SimpleScenario.node[49].nic.mac1609_4 ReceivedUnicastPackets 0
scalar SimpleScenario.node[49].nic.mac1609_4 ReceivedBroadcasts 62
scalar SimpleScenario.node[49].nic.mac1609_4 SentPackets 231
scalar SimpleScenario.node[49].nic.mac1609_4 SentAcknowledgements 0
scalar SimpleScenario.node[49].nic.mac1609_4 SNIRLostPackets 149
scalar SimpleScenario.node[49].nic.mac1609_4 RXTXLostPackets 0
scalar SimpleScenario.node[49].nic.mac1609_4 TotalLostPackets 149
scalar SimpleScenario.node[49].nic.mac1609_4 DroppedPacketsInMac 0
scalar SimpleScenario.node[49].nic.mac1609_4 TooLittleTime 0
scalar SimpleScenario.node[49].nic.mac1609_4 TimesIntoBackoff 231
scalar SimpleScenario.node[49].nic.mac1609_4 SlotsBackoff 1832
scalar SimpleScenario.node[49].nic.mac1609_4 NumInternalContention 0
scalar SimpleScenario.node[49].nic.mac1609_4 totalBusyTime 0.046199
scalar SimpleScenario.node[50].appl generatedWSMs 0
scalar SimpleScenario.node[50].appl receivedWSMs 0
scalar SimpleScenario.node[50].appl generatedBSMs 223
scalar SimpleScenario.node[50].appl receivedBSMs 45
scalar SimpleScenario.node[50].nic.phy80211p busyTime 0.00010348
scalar SimpleScenario.node[50].nic.mac1609_4 ReceivedUnicastPackets 0
scalar SimpleScenario.node[50].nic.mac1609_4 ReceivedBroadcasts 45
scalar SimpleScenario.node[50].nic.mac1609_4 SentPackets 223
scalar SimpleScenario.node[50].nic.mac1609_4 SentAcknowledgements 0
scalar SimpleScenario.node[50].nic.mac1609_4 SNIRLostPackets 154
scalar SimpleScenario.node[50].nic.mac1609_4 RXTXLostPackets 0
scalar SimpleScenario.node[50].nic.mac1609_4 TotalLostPackets 154
scalar SimpleScenario.node[50].nic.mac1609_4 DroppedPacketsInMac 0
scalar SimpleScenario.node[50].nic.mac1609_4 TooLittleTime 0
scalar SimpleScenario.node[50].nic.mac1609_4 TimesIntoBackoff 223
scalar SimpleScenario.node[50].nic.mac1609_4 SlotsBackoff 1703
scalar SimpleScenario.node[50].nic.mac1609_4 NumInternalContention 0
scalar SimpleScenario.node[50].nic.mac1609_4 totalBusyTime 0.044111
scalar SimpleScenario.node[51].appl generatedWSMs 0
scalar SimpleScenario.node[51].appl receivedWSMs 0
scalar SimpleScenario.node[51].appl generatedBSMs 304
scalar SimpleScenario.node[51].appl receivedBSMs 237
scalar SimpleScenario.node[51].nic.phy80211p busyTime 0.00030212
scalar SimpleScenario.node[51].nic.mac1609_4 ReceivedUnicastPackets 0
scalar SimpleScenario.node[51].nic.mac1609_4 ReceivedBroadcasts 237
scalar SimpleScenario.node[51].nic.mac1609_4 SentPackets 304
scalar SimpleScenario.node[51].nic.mac1609_4 SentAcknowledgements 0
scalar SimpleScenario.node[51].nic.mac1609_4 SNIRLostPackets 344
scalar SimpleScenario.node[51].nic.mac1609_4 RXTXLostPackets 0
scalar SimpleScenario.node[51].nic.mac1609_4 TotalLostPackets 344
scalar SimpleScenario.node[51].nic.mac1609_4 DroppedPacketsInMac 0
scalar SimpleScenario.node[51].nic.mac1609_4 TooLittleTime 0
scalar SimpleScenario.node[51].nic.mac1609_4 TimesIntoBackoff 304
scalar SimpleScenario.node[51].nic.mac1609_4 SlotsBackoff 2178
scalar SimpleScenario.node[51].nic.mac1609_4 NumInternalContention 0
scalar SimpleScenario.node[51].nic.mac1609_4 totalBusyTime 0.092344
scalar SimpleScenario.node[52].appl generatedWSMs 0
scalar SimpleScenario.node[52].appl receivedWSMs 0
scalar SimpleScenario.node[52].appl generatedBSMs 294
scalar SimpleScenario.node[52].appl receivedBSMs 221
scalar SimpleScenario.node[52].nic.phy80211p busyTime 0.00031772
scalar SimpleScenario.node[52].nic.mac1609_4 ReceivedUnicastPackets 0
scalar SimpleScenario.node[52].nic.mac1609_4 ReceivedBroadcasts 221
scalar SimpleScenario.node[52].nic.mac1609_4 SentPackets 294
scalar SimpleScenario.node[52].nic.mac1609_4 SentAcknowledgements 0
scalar SimpleScenario.node[52].nic.mac1609_4 SNIRLostPackets 390
scalar SimpleScenario.node[52].nic.mac1609_4 RXTXLostPackets 0
scalar SimpleScenario.node[52].nic.mac1609_4 TotalLostPackets 390
scalar SimpleScenario.node[52].nic.mac1609_4 DroppedPacketsInMac 0
scalar SimpleScenario.node[52].nic.mac1609_4 TooLittleTime 0
scalar SimpleScenario.node[52].nic.mac1609_4 TimesIntoBackoff 294
scalar SimpleScenario.node[52].nic.mac1609_4 SlotsBackoff 2240
scalar SimpleScenario.node[52].nic.mac1609_4 NumInternalContention 0
scalar SimpleScenario.node[52].nic.mac1609_4 totalBusyTime 0.094414
scalar SimpleScenario.node[53].appl generatedWSMs 0
scalar SimpleScenario.node[53].appl receivedWSMs 0
scalar SimpleScenario.node[53].appl generatedBSMs 250
scalar SimpleScenario.node[53].appl receivedBSMs 96
scalar SimpleScenario.node[53].nic.phy80211p busyTime 0.00025012
scalar SimpleScenario.node[53].nic.mac1609_4 ReceivedUnicastPackets 0
scalar SimpleScenario.node[53].nic.mac1609_4 ReceivedBroadcasts 96
scalar SimpleScenario.node[53].nic.mac1609_4 SentPackets 250
scalar SimpleScenario.node[53].nic.mac1609_4 SentAcknowledgements 0
scalar SimpleScenario.node[53].nic.mac1609_4 SNIRLostPackets 385
scalar SimpleScenario.node[53].nic.mac1609_4 RXTXLostPackets 0
scalar SimpleScenario.node[53].nic.mac1609_4 TotalLostPackets 385
scalar SimpleScenario.node[53].nic.mac1609_4 DroppedPacketsInMac 0
scalar SimpleScenario.node[53].nic.mac1609_4 TooLittleTime 0
scalar SimpleScenario.node[53].nic.mac1609_4 TimesIntoBackoff 250
scalar SimpleScenario.node[53].nic.mac1609_4 SlotsBackoff 1791
scalar SimpleScenario.node[53].nic.mac1609_4 NumInternalContention 0
scalar SimpleScenario.node[53].nic.mac1609_4 totalBusyTime 0.076274
scalar SimpleScenario.node[54].appl generatedWSMs 0
scalar SimpleScenario.node[54].appl receivedWSMs 0
scalar SimpleScenario.node[54].appl generatedBSMs 231
scalar SimpleScenario.node[54].appl receivedBSMs 58
scalar SimpleScenario.node[54].nic.phy80211p busyTime 0.00022308
scalar SimpleScenario.node[54].nic.mac1609_4 ReceivedUnicastPackets 0
scalar SimpleScenario.node[54].nic.mac1609_4 ReceivedBroadcasts 58
scalar SimpleScenario.node[54].nic.mac1609_4 SentPackets 231
scalar SimpleScenario.node[54].nic.mac1609_4 SentAcknowledgements 0
scalar SimpleScenario.node[54].nic.mac1609_4 SNIRLostPackets 371
scalar SimpleScenario.node[54].nic.mac1609_4 RXTXLostPackets 0
scalar SimpleScenario.node[54].nic.mac1609_4 TotalLostPackets 371
scalar SimpleScenario.node[54].nic.mac1609_4 DroppedPacketsInMac 0
scalar SimpleScenario.node[54].nic.mac1609_4 TooLittleTime 0
scalar SimpleScenario.node[54].nic.mac1609_4 TimesIntoBackoff 231
scalar SimpleScenario.node[54].nic.mac1609_4 SlotsBackoff 1612
scalar SimpleScenario.node[54].nic.mac1609_4 NumInternalContention 0
scalar SimpleScenario.node[54].nic.mac1609_4 totalBusyTime 0.068871
scalar SimpleScenario.node[55].appl generatedWSMs 0
scalar SimpleScenario.node[55].appl receivedWSMs 0
scalar SimpleScenario.node[55].appl generatedBSMs 263
scalar SimpleScenario.node[55].appl receivedBSMs 115
scalar SimpleScenario.node[55].nic.phy80211p busyTime 0.0001716
scalar SimpleScenario.node[55].nic.mac1609_4 ReceivedUnicastPackets 0
scalar SimpleScenario.node[55].nic.mac1609_4 ReceivedBroadcasts 115
scalar SimpleScenario.node[55].nic.mac1609_4 SentPackets 263
scalar SimpleScenario.node[55].nic.mac1609_4 SentAcknowledgements 0
scalar SimpleScenario.node[55].nic.mac1609_4 SNIRLostPackets 215
scalar SimpleScenario.node[55].nic.mac1609_4 RXTXLostPackets 0
scalar SimpleScenario.node[55].nic.mac1609_4 TotalLostPackets 215
scalar SimpleScenario.node[55].nic.mac1609_4 DroppedPacketsInMac 0
scalar SimpleScenario.node[55].nic.mac1609_4 TooLittleTime 0
scalar SimpleScenario.node[55].nic.mac1609_4 TimesIntoBackoff 263
scalar SimpleScenario.node[55].nic.mac1609_4 SlotsBackoff 2092
scalar SimpleScenario.node[55].nic.mac1609_4 NumInternalContention 0
scalar SimpleScenario.node[55].nic.mac1609_4 totalBusyTime 0.061935
scalar SimpleScenario.node[56].appl generatedWSMs 0
scalar SimpleScenario.node[56].appl receivedWSMs 0
scalar SimpleScenario.node[56].appl generatedBSMs 304
scalar SimpleScenario.node[56].appl receivedBSMs 239
scalar SimpleScenario.node[56].nic.phy80211p busyTime 0.00030056
scalar SimpleScenario.node[56].nic.mac1609_4 ReceivedUnicastPackets 0
scalar SimpleScenario.node[56].nic.mac1609_4 ReceivedBroadcasts 239
scalar SimpleScenario.node[56].nic.mac1609_4 SentPackets 304
scalar SimpleScenario.node[56].nic.mac1609_4 SentAcknowledgements 0
scalar SimpleScenario.node[56].nic.mac1609_4 SNIRLostPackets 339
scalar SimpleScenario.node[56].nic.mac1609_4 RXTXLostPackets 0
scalar SimpleScenario.node[56].nic.mac1609_4 TotalLostPackets 339
scalar SimpleScenario.node[56].nic.mac1609_4 DroppedPacketsInMac 0
scalar SimpleScenario.node[56].nic.mac1609_4 TooLittleTime 0
scalar SimpleScenario.node[56].nic.mac1609_4 TimesIntoBackoff 304
scalar SimpleScenario.node[56].nic.mac1609_4 SlotsBackoff 2218
scalar SimpleScenario.node[56].nic.mac1609_4 NumInternalContention 0
scalar SimpleScenario.node[56].nic.mac1609_4 totalBusyTime 0.092032
scalar SimpleScenario.node[57].appl generatedWSMs 0
scalar SimpleScenario.node[57].appl receivedWSMs 0
scalar SimpleScenario.node[57].appl generatedBSMs 284
scalar SimpleScenario.node[57].appl receivedBSMs 202
scalar SimpleScenario.node[57].nic.phy80211p busyTime 0.0002704
scalar SimpleScenario.node[57].nic.mac1609_4 ReceivedUnicastPackets 0
scalar SimpleScenario.node[57].nic.mac1609_4 ReceivedBroadcasts 202
scalar SimpleScenario.node[57].nic.mac1609_4 SentPackets 284
scalar SimpleScenario.node[57].nic.mac1609_4 SentAcknowledgements 0
scalar SimpleScenario.node[57].nic.mac1609_4 SNIRLostPackets 318
scalar SimpleScenario.node[57].nic.mac1609_4 RXTXLostPackets 0
scalar SimpleScenario.node[57].nic.mac1609_4 TotalLostPackets 318
scalar SimpleScenario.node[57].nic.mac1609_4 DroppedPacketsInMac 0
scalar SimpleScenario.node[57].nic.mac1609_4 TooLittleTime 0
scalar SimpleScenario.node[57].nic.mac1609_4 TimesIntoBackoff 284
scalar SimpleScenario.node[57].nic.mac1609_4 SlotsBackoff 2098
scalar SimpleScenario.node[57].nic.mac1609_4 NumInternalContention 0
scalar SimpleScenario.node[57].nic.mac1609_4 totalBusyTime 0.0839
scalar SimpleScenario.node[58].appl generatedWSMs 0
scalar SimpleScenario.node[58].appl receivedWSMs 0
scalar SimpleScenario.node[58].appl generatedBSMs 244
scalar SimpleScenario.node[58].appl receivedBSMs 102
scalar SimpleScenario.node[58].nic.phy80211p busyTime 0.00015028
scalar SimpleScenario.node[58].nic.mac1609_4 ReceivedUnicastPackets 0
scalar SimpleScenario.node[58].nic.mac1609_4 ReceivedBroadcasts 102
scalar SimpleScenario.node[58].nic.mac1609_4 SentPackets 244
scalar SimpleScenario.node[58].nic.mac1609_4 SentAcknowledgements 0
scalar SimpleScenario.node[58].nic.mac1609_4 SNIRLostPackets 187
scalar SimpleScenario.node[58].nic.mac1609_4 RXTXLostPackets 0
scalar SimpleScenario.node[58].nic.mac1609_4 TotalLostPackets 187
scalar SimpleScenario.node[58].nic.mac1609_4 DroppedPacketsInMac 0
scalar SimpleScenario.node[58].nic.mac1609_4 TooLittleTime 0
scalar SimpleScenario.node[58].nic.mac1609_4 TimesIntoBackoff 244
scalar SimpleScenario.node[58].nic.mac1609_4 SlotsBackoff 1845
scalar SimpleScenario.node[58].nic.mac1609_4 NumInternalContention 0
scalar SimpleScenario.node[58].nic.mac1609_4 totalBusyTime 0.055676
scalar SimpleScenario.node[59].appl generatedWSMs 0
scalar SimpleScenario.node[59].appl receivedWSMs 0
scalar SimpleScenario.node[59].appl generatedBSMs 261
scalar SimpleScenario.node[59].appl receivedBSMs 162
scalar SimpleScenario.node[59].nic.phy80211p busyTime 0.00018876
scalar SimpleScenario.node[59].nic.mac1609_4 ReceivedUnicastPackets 0
scalar SimpleScenario.node[59].nic.mac1609_4 ReceivedBroadcasts 162
scalar SimpleScenario.node[59].nic.mac1609_4 SentPackets 261
scalar SimpleScenario.node[59].nic.mac1609_4 SentAcknowledgements 0
scalar SimpleScenario.node[59].nic.mac1609_4 SNIRLostPackets 201
scalar SimpleScenario.node[59].nic.mac1609_4 RXTXLostPackets 0
scalar SimpleScenario.node[59].nic.mac1609_4 TotalLostPackets 201
scalar SimpleScenario.node[59].nic.mac1609_4 DroppedPacketsInMac 0
scalar SimpleScenario.node[59].nic.mac1609_4 TooLittleTime 0
scalar SimpleScenario.node[59].nic.mac1609_4 TimesIntoBackoff 261
scalar SimpleScenario.node[59].nic.mac1609_4 SlotsBackoff 1900
scalar SimpleScenario.node[59].nic.mac1609_4 NumInternalContention 0
scalar SimpleScenario.node[59].nic.mac1609_4 totalBusyTime 0.065157
scalar SimpleScenario.node[60].appl generatedWSMs 0
scalar SimpleScenario.node[60].appl receivedWSMs 0
scalar SimpleScenario.node[60].appl generatedBSMs 281
scalar SimpleScenario.node[60].appl receivedBSMs 174
scalar SimpleScenario.node[60].nic.phy80211p busyTime 0.00014664
scalar SimpleScenario.node[60].nic.mac1609_4 ReceivedUnicastPackets 0
scalar SimpleScenario.node[60].nic.mac1609_4 ReceivedBroadcasts 174
scalar SimpleScenario.node[60].nic.mac1609_4 SentPackets 281
scalar SimpleScenario.node[60].nic.mac1609_4 SentAcknowledgements 0
scalar SimpleScenario.node[60].nic.mac1609_4 SNIRLostPackets 108
scalar SimpleScenario.node[60].nic.mac1609_4 RXTXLostPackets 0
scalar SimpleScenario.node[60].nic.mac1609_4 TotalLostPackets 108
scalar SimpleScenario.node[60].nic.mac1609_4 DroppedPacketsInMac 0
scalar SimpleScenario.node[60].nic.mac1609_4 TooLittleTime 0
scalar SimpleScenario.node[60].nic.mac1609_4 TimesIntoBackoff 281
scalar SimpleScenario.node[60].nic.mac1609_4 SlotsBackoff 2097
scalar SimpleScenario.node[60].nic.mac1609_4 NumInternalContention 0
scalar SimpleScenario.node[60].nic.mac1609_4 totalBusyTime 0.058833
scalar SimpleScenario.node[61].appl generatedWSMs 0
scalar SimpleScenario.node[61].appl receivedWSMs 0
scalar SimpleScenario.node[61].appl generatedBSMs 221
scalar SimpleScenario.node[61].appl receivedBSMs 42
scalar SimpleScenario.node[61].nic.phy80211p busyTime 0.00013572
scalar SimpleScenario.node[61].nic.mac1609_4 ReceivedUnicastPackets 0
scalar SimpleScenario.node[61].nic.mac1609_4 ReceivedBroadcasts 42
scalar SimpleScenario.node[61].nic.mac1609_4 SentPackets 221
scalar SimpleScenario.node[61].nic.mac1609_4 SentAcknowledgements 0
scalar SimpleScenario.node[61].nic.mac1609_4 SNIRLostPackets 219
scalar SimpleScenario.node[61].nic.mac1609_4 RXTXLostPackets 0
scalar SimpleScenario.node[61].nic.mac1609_4 TotalLostPackets 219
scalar SimpleScenario.node[61].nic.mac1609_4 DroppedPacketsInMac 0
scalar SimpleScenario.node[61].nic.mac1609_4 TooLittleTime 0
scalar SimpleScenario.node[61].nic.mac1609_4 TimesIntoBackoff 221
scalar SimpleScenario.node[61].nic.mac1609_4 SlotsBackoff 1581
scalar SimpleScenario.node[61].nic.mac1609_4 NumInternalContention 0
scalar SimpleScenario.node[61].nic.mac1609_4 totalBusyTime 0.050349
scalar SimpleScenario.node[62].appl generatedWSMs 0
scalar SimpleScenario.node[62].appl receivedWSMs 0
scalar SimpleScenario.node[62].appl generatedBSMs 281
scalar SimpleScenario.node[62].appl receivedBSMs 195
scalar SimpleScenario.node[62].nic.phy80211p busyTime 0.00032916
scalar SimpleScenario.node[62].nic.mac1609_4 ReceivedUnicastPackets 0
scalar SimpleScenario.node[62].nic.mac1609_4 ReceivedBroadcasts 195
scalar SimpleScenario.node[62].nic.mac1609_4 SentPackets 281
scalar SimpleScenario.node[62].nic.mac1609_4 SentAcknowledgements 0
scalar SimpleScenario.node[62].nic.mac1609_4 SNIRLostPackets 438
scalar SimpleScenario.node[62].nic.mac1609_4 RXTXLostPackets 0
scalar SimpleScenario.node[62].nic.mac1609_4 TotalLostPackets 438
scalar SimpleScenario.node[62].nic.mac1609_4 DroppedPacketsInMac 0
scalar SimpleScenario.node[62].nic.mac1609_4 TooLittleTime 0
scalar SimpleScenario.node[62].nic.mac1609_4 TimesIntoBackoff 281
scalar SimpleScenario.node[62].nic.mac1609_4 SlotsBackoff 2065
scalar SimpleScenario.node[62].nic.mac1609_4 NumInternalContention 0
scalar SimpleScenario.node[62].nic.mac1609_4 totalBusyTime 0.095337
scalar SimpleScenario.node[63].appl generatedWSMs 0
scalar SimpleScenario.node[63].appl receivedWSMs 0
scalar SimpleScenario.node[63].appl generatedBSMs 283
scalar SimpleScenario.node[63].appl receivedBSMs 202
scalar SimpleScenario.node[63].nic.phy80211p busyTime 0.0002938
scalar SimpleScenario.node[63].nic.mac1609_4 ReceivedUnicastPackets 0
scalar SimpleScenario.node[63].nic.mac1609_4 ReceivedBroadcasts 202
scalar SimpleScenario.node[63].nic.mac1609_4 SentPackets 283
scalar SimpleScenario.node[63].nic.mac1609_4 SentAcknowledgements 0
scalar SimpleScenario.node[63].nic.mac1609_4 SNIRLostPackets 363
scalar SimpleScenario.node[63].nic.mac1609_4 RXTXLostPackets 0
scalar SimpleScenario.node[63].nic.mac1609_4 TotalLostPackets 363
scalar SimpleScenario.node[63].nic.mac1609_4 DroppedPacketsInMac 0
scalar SimpleScenario.node[63].nic.mac1609_4 TooLittleTime 0
scalar SimpleScenario.node[63].nic.mac1609_4 TimesIntoBackoff 283
scalar SimpleScenario.node[63].nic.mac1609_4 SlotsBackoff 2029
scalar SimpleScenario.node[63].nic.mac1609_4 NumInternalContention 0
scalar SimpleScenario.node[63].nic.mac1609_4 totalBusyTime 0.088475
scalar SimpleScenario.node[64].appl generatedWSMs 0
scalar SimpleScenario.node[64].appl receivedWSMs 0
scalar SimpleScenario.node[64].appl generatedBSMs 311
scalar SimpleScenario.node[64].appl receivedBSMs 308
scalar SimpleScenario.node[64].nic.phy80211p busyTime 0.00038896
scalar SimpleScenario.node[64].nic.mac1609_4 ReceivedUnicastPackets 0
scalar SimpleScenario.node[64].nic.mac1609_4 ReceivedBroadcasts 308
scalar SimpleScenario.node[64].nic.mac1609_4 SentPackets 311
scalar SimpleScenario.node[64].nic.mac1609_4 SentAcknowledgements 0
scalar SimpleScenario.node[64].nic.mac1609_4 SNIRLostPackets 440
scalar SimpleScenario.node[64].nic.mac1609_4 RXTXLostPackets 0
scalar SimpleScenario.node[64].nic.mac1609_4 TotalLostPackets 440
scalar SimpleScenario.node[64].nic.mac1609_4 DroppedPacketsInMac 0
scalar SimpleScenario.node[64].nic.mac1609_4 TooLittleTime 0
scalar SimpleScenario.node[64].nic.mac1609_4 TimesIntoBackoff 311
scalar SimpleScenario.node[64].nic.mac1609_4 SlotsBackoff 2391
scalar SimpleScenario.node[64].nic.mac1609_4 NumInternalContention 0
scalar SimpleScenario.node[64].nic.mac1609_4 totalBusyTime 0.110447
scalar SimpleScenario.node[65].appl generatedWSMs 0
scalar SimpleScenario.node[65].appl receivedWSMs 0
scalar SimpleScenario.node[65].appl generatedBSMs 267
scalar SimpleScenario.node[65].appl receivedBSMs 182
scalar SimpleScenario.node[65].nic.phy80211p busyTime 0.00020072
scalar SimpleScenario.node[65].nic.mac1609_4 ReceivedUnicastPackets 0
scalar SimpleScenario.node[65].nic.mac1609_4 ReceivedBroadcasts 182
scalar SimpleScenario.node[65].nic.mac1609_4 SentPackets 267
scalar SimpleScenario.node[65].nic.mac1609_4 SentAcknowledgements 0
scalar SimpleScenario.node[65].nic.mac1609_4 SNIRLostPackets 204
scalar SimpleScenario.node[65].nic.mac1609_4 RXTXLostPackets 0
scalar SimpleScenario.node[65].nic.mac1609_4 TotalLostPackets 204
scalar SimpleScenario.node[65].nic.mac1609_4 DroppedPacketsInMac 0
scalar SimpleScenario.node[65].nic.mac1609_4 TooLittleTime 0
scalar SimpleScenario.node[65].nic.mac1609_4 TimesIntoBackoff 267
scalar SimpleScenario.node[65].nic.mac1609_4 SlotsBackoff 2001
scalar SimpleScenario.node[65].nic.mac1609_4 NumInternalContention 0
scalar SimpleScenario.node[65].nic.mac1609_4 totalBusyTime 0.068179
scalar SimpleScenario.node[66].appl generatedWSMs 0
scalar SimpleScenario.node[66].appl receivedWSMs 0
scalar SimpleScenario.node[66].appl generatedBSMs 284
scalar SimpleScenario.node[66].appl receivedBSMs 178
scalar SimpleScenario.node[66].nic.phy80211p busyTime 0.00025168
scalar SimpleScenario.node[66].nic.mac1609_4 ReceivedUnicastPackets 0
scalar SimpleScenario.node[66].nic.mac1609_4 ReceivedBroadcasts 178
scalar SimpleScenario.node[66].nic.mac1609_4 SentPackets 284
scalar SimpleScenario.node[66].nic.mac1609_4 SentAcknowledgements 0
scalar SimpleScenario.node[66].nic.mac1609_4 SNIRLostPackets 306
scalar SimpleScenario.node[66].nic.mac1609_4 RXTXLostPackets 0
scalar SimpleScenario.node[66].nic.mac1609_4 TotalLostPackets 306
scalar SimpleScenario.node[66].nic.mac1609_4 DroppedPacketsInMac 0
scalar SimpleScenario.node[66].nic.mac1609_4 TooLittleTime 0
scalar SimpleScenario.node[66].nic.mac1609_4 TimesIntoBackoff 284
scalar SimpleScenario.node[66].nic.mac1609_4 SlotsBackoff 2232
scalar SimpleScenario.node[66].nic.mac1609_4 NumInternalContention 0
scalar SimpleScenario.node[66].nic.mac1609_4 totalBusyTime 0.080156
scalar SimpleScenario.node[67].appl generatedWSMs 0
scalar SimpleScenario.node[67].appl receivedWSMs 0
scalar SimpleScenario.node[67].appl generatedBSMs 278
scalar SimpleScenario.node[67].appl receivedBSMs 161
scalar SimpleScenario.node[67].nic.phy80211p busyTime 0.00025792
scalar SimpleScenario.node[67].nic.mac1609_4 ReceivedUnicastPackets 0
scalar SimpleScenario.node[67].nic.mac1609_4 ReceivedBroadcasts 161
scalar SimpleScenario.node[67].nic.mac1609_4 SentPackets 278
scalar SimpleScenario.node[67].nic.mac1609_4 SentAcknowledgements 0
scalar SimpleScenario.node[67].nic.mac1609_4 SNIRLostPackets 335
scalar SimpleScenario.node[67].nic.mac1609_4 RXTXLostPackets 0
scalar SimpleScenario.node[67].nic.mac1609_4 TotalLostPackets 335
scalar SimpleScenario.node[67].nic.mac1609_4 DroppedPacketsInMac 0
scalar SimpleScenario.node[67].nic.mac1609_4 TooLittleTime 0
scalar SimpleScenario.node[67].nic.mac1609_4 TimesIntoBackoff 278
scalar SimpleScenario.node[67].nic.mac1609_4 SlotsBackoff 2086
scalar SimpleScenario.node[67].nic.mac1609_4 NumInternalContention 0
scalar SimpleScenario.node[67].nic.mac1609_4 totalBusyTime 0.080774
scalar SimpleScenario.node[68].appl generatedWSMs 0
scalar SimpleScenario.node[68].appl receivedWSMs 0
scalar SimpleScenario.node[68].appl generatedBSMs 273
scalar SimpleScenario.node[68].appl receivedBSMs 155
scalar SimpleScenario.node[68].nic.phy80211p busyTime 0.00016692
scalar SimpleScenario.node[68].nic.mac1609_4 ReceivedUnicastPackets 0
scalar SimpleScenario.node[68].nic.mac1609_4 ReceivedBroadcasts 155
scalar SimpleScenario.node[68].nic.mac1609_4 SentPackets 273
scalar SimpleScenario.node[68].nic.mac1609_4 SentAcknowledgements 0
scalar SimpleScenario.node[68].nic.mac1609_4 SNIRLostPackets 166
scalar SimpleScenario.node[68].nic.mac1609_4 RXTXLostPackets 0
scalar SimpleScenario.node[68].nic.mac1609_4 TotalLostPackets 166
scalar SimpleScenario.node[68].nic.mac1609_4 DroppedPacketsInMac 0
scalar SimpleScenario.node[68].nic.mac1609_4 TooLittleTime 0
scalar SimpleScenario.node[68].nic.mac1609_4 TimesIntoBackoff 273
scalar SimpleScenario.node[68].nic.mac1609_4 SlotsBackoff 2124
scalar SimpleScenario.node[68].nic.mac1609_4 NumInternalContention 0
scalar SimpleScenario.node[68].nic.mac1609_4 totalBusyTime 0.062049
scalar SimpleScenario.node[69].appl generatedWSMs 0
scalar SimpleScenario.node[69].appl receivedWSMs 0
scalar SimpleScenario.node[69].appl generatedBSMs 311
scalar SimpleScenario.node[69].appl receivedBSMs 281
scalar SimpleScenario.node[69].nic.phy80211p busyTime 0.00040612000000001
scalar SimpleScenario.node[69].nic.mac1609_4 ReceivedUnicastPackets 0
[...]
scalar SimpleScenario.node[82].nic.mac1609_4 ReceivedBroadcasts 115
scalar SimpleScenario.node[82].nic.mac1609_4 SentPackets 256
scalar SimpleScenario.node[82].nic.mac1609_4 SentAcknowledgements 0
scalar SimpleScenario.node[82].nic.mac1609_4 SNIRLostPackets 164
scalar SimpleScenario.node[82].nic.mac1609_4 RXTXLostPackets 0
scalar SimpleScenario.node[82].nic.mac1609_4 TotalLostPackets 164
scalar SimpleScenario.node[82].nic.mac1609_4 DroppedPacketsInMac 0
scalar SimpleScenario.node[82].nic.mac1609_4 TooLittleTime 0
scalar SimpleScenario.node[82].nic.mac1609_4 TimesIntoBackoff 256
scalar SimpleScenario.node[82].nic.mac1609_4 SlotsBackoff 1976
scalar SimpleScenario.node[82].nic.mac1609_4 NumInternalContention 0
scalar SimpleScenario.node[82].nic.mac1609_4 totalBusyTime 0.055896
scalar SimpleScenario.node[83].appl generatedWSMs 0
scalar SimpleScenario.node[83].appl receivedWSMs 0
scalar SimpleScenario.node[83].appl generatedBSMs 293
scalar SimpleScenario.node[83].appl receivedBSMs 181
scalar SimpleScenario.node[83].nic.phy80211p busyTime 0.00027196
scalar SimpleScenario.node[83].nic.mac1609_4 ReceivedUnicastPackets 0
scalar SimpleScenario.node[83].nic.mac1609_4 ReceivedBroadcasts 181
scalar SimpleScenario.node[83].nic.mac1609_4 SentPackets 293
scalar SimpleScenario.node[83].nic.mac1609_4 SentAcknowledgements 0
scalar SimpleScenario.node[83].nic.mac1609_4 SNIRLostPackets 342
scalar SimpleScenario.node[83].nic.mac1609_4 RXTXLostPackets 0
scalar SimpleScenario.node[83].nic.mac1609_4 TotalLostPackets 342
scalar SimpleScenario.node[83].nic.mac1609_4 DroppedPacketsInMac 0
scalar SimpleScenario.node[83].nic.mac1609_4 TooLittleTime 0
scalar SimpleScenario.node[83].nic.mac1609_4 TimesIntoBackoff 293
scalar SimpleScenario.node[83].nic.mac1609_4 SlotsBackoff 2169
scalar SimpleScenario.node[83].nic.mac1609_4 NumInternalContention 0
scalar SimpleScenario.node[83].nic.mac1609_4 totalBusyTime 0.085157
scalar SimpleScenario.node[84].appl generatedWSMs 0
scalar SimpleScenario.node[84].appl receivedWSMs 0
scalar SimpleScenario.node[84].appl generatedBSMs 315
scalar SimpleScenario.node[84].appl receivedBSMs 264
scalar SimpleScenario.node[84].nic.phy80211p busyTime 0.00031512
scalar SimpleScenario.node[84].nic.mac1609_4 ReceivedUnicastPackets 0
scalar SimpleScenario.node[84].nic.mac1609_4 ReceivedBroadcasts 264
scalar SimpleScenario.node[84].nic.mac1609_4 SentPackets 315
scalar SimpleScenario.node[84].nic.mac1609_4 SentAcknowledgements 0
scalar SimpleScenario.node[84].nic.mac1609_4 SNIRLostPackets 342
scalar SimpleScenario.node[84].nic.mac1609_4 RXTXLostPackets 0
scalar SimpleScenario.node[84].nic.mac1609_4 TotalLostPackets 342
scalar SimpleScenario.node[84].nic.mac1609_4 DroppedPacketsInMac 0
scalar SimpleScenario.node[84].nic.mac1609_4 TooLittleTime 0
scalar SimpleScenario.node[84].nic.mac1609_4 TimesIntoBackoff 315
scalar SimpleScenario.node[84].nic.mac1609_4 SlotsBackoff 2283
scalar SimpleScenario.node[84].nic.mac1609_4 NumInternalContention 0
scalar SimpleScenario.node[84].nic.mac1609_4 totalBusyTime 0.095371
scalar SimpleScenario.node[85].appl generatedWSMs 0
scalar SimpleScenario.node[85].appl receivedWSMs 0
scalar SimpleScenario.node[85].appl generatedBSMs 274
scalar SimpleScenario.node[85].appl receivedBSMs 186
scalar SimpleScenario.node[85].nic.phy80211p busyTime 0.00029588
scalar SimpleScenario.node[85].nic.mac1609_4 ReceivedUnicastPackets 0
scalar SimpleScenario.node[85].nic.mac1609_4 ReceivedBroadcasts 186
scalar SimpleScenario.node[85].nic.mac1609_4 SentPackets 274
scalar SimpleScenario.node[85].nic.mac1609_4 SentAcknowledgements 0
scalar SimpleScenario.node[85].nic.mac1609_4 SNIRLostPackets 383
scalar SimpleScenario.node[85].nic.mac1609_4 RXTXLostPackets 0
scalar SimpleScenario.node[85].nic.mac1609_4 TotalLostPackets 383
scalar SimpleScenario.node[85].nic.mac1609_4 DroppedPacketsInMac 0
scalar SimpleScenario.node[85].nic.mac1609_4 TooLittleTime 0
scalar SimpleScenario.node[85].nic.mac1609_4 TimesIntoBackoff 274
scalar SimpleScenario.node[85].nic.mac1609_4 SlotsBackoff 2093
scalar SimpleScenario.node[85].nic.mac1609_4 NumInternalContention 0
scalar SimpleScenario.node[85].nic.mac1609_4 totalBusyTime 0.087946
scalar SimpleScenario.node[86].appl generatedWSMs 0
scalar SimpleScenario.node[86].appl receivedWSMs 0
scalar SimpleScenario.node[86].appl generatedBSMs 290
scalar SimpleScenario.node[86].appl receivedBSMs 221
scalar SimpleScenario.node[86].nic.phy80211p busyTime 0.00021996
scalar SimpleScenario.node[86].nic.mac1609_4 ReceivedUnicastPackets 0
scalar SimpleScenario.node[86].nic.mac1609_4 ReceivedBroadcasts 221
scalar SimpleScenario.node[86].nic.mac1609_4 SentPackets 290
scalar SimpleScenario.node[86].nic.mac1609_4 SentAcknowledgements 0
scalar SimpleScenario.node[86].nic.mac1609_4 SNIRLostPackets 202
scalar SimpleScenario.node[86].nic.mac1609_4 RXTXLostPackets 0
scalar SimpleScenario.node[86].nic.mac1609_4 TotalLostPackets 202
scalar SimpleScenario.node[86].nic.mac1609_4 DroppedPacketsInMac 0
scalar SimpleScenario.node[86].nic.mac1609_4 TooLittleTime 0
scalar SimpleScenario.node[86].nic.mac1609_4 TimesIntoBackoff 290
scalar SimpleScenario.node[86].nic.mac1609_4 SlotsBackoff 2185
scalar SimpleScenario.node[86].nic.mac1609_4 NumInternalContention 0
scalar SimpleScenario.node[86].nic.mac1609_4 totalBusyTime 0.074442
scalar SimpleScenario.node[87].appl generatedWSMs 0
scalar SimpleScenario.node[87].appl receivedWSMs 0
scalar SimpleScenario.node[87].appl generatedBSMs 289
scalar SimpleScenario.node[87].appl receivedBSMs 196
scalar SimpleScenario.node[87].nic.phy80211p busyTime 0.00021684
scalar SimpleScenario.node[87].nic.mac1609_4 ReceivedUnicastPackets 0
scalar SimpleScenario.node[87].nic.mac1609_4 ReceivedBroadcasts 196
scalar SimpleScenario.node[87].nic.mac1609_4 SentPackets 289
scalar SimpleScenario.node[87].nic.mac1609_4 SentAcknowledgements 0
scalar SimpleScenario.node[87].nic.mac1609_4 SNIRLostPackets 221
scalar SimpleScenario.node[87].nic.mac1609_4 RXTXLostPackets 0
scalar SimpleScenario.node[87].nic.mac1609_4 TotalLostPackets 221
scalar SimpleScenario.node[87].nic.mac1609_4 DroppedPacketsInMac 0
scalar SimpleScenario.node[87].nic.mac1609_4 TooLittleTime 0
scalar SimpleScenario.node[87].nic.mac1609_4 TimesIntoBackoff 289
scalar SimpleScenario.node[87].nic.mac1609_4 SlotsBackoff 2064
scalar SimpleScenario.node[87].nic.mac1609_4 NumInternalContention 0
scalar SimpleScenario.node[87].nic.mac1609_4 totalBusyTime 0.073713
scalar SimpleScenario.node[88].appl generatedWSMs 0
scalar SimpleScenario.node[88].appl receivedWSMs 0
scalar SimpleScenario.node[88].appl generatedBSMs 263
scalar SimpleScenario.node[88].appl receivedBSMs 154
scalar SimpleScenario.node[88].nic.phy80211p busyTime 0.00019032
scalar SimpleScenario.node[88].nic.mac1609_4 ReceivedUnicastPackets 0
scalar SimpleScenario.node[88].nic.mac1609_4 ReceivedBroadcasts 154
scalar SimpleScenario.node[88].nic.mac1609_4 SentPackets 263
scalar SimpleScenario.node[88].nic.mac1609_4 SentAcknowledgements 0
scalar SimpleScenario.node[88].nic.mac1609_4 SNIRLostPackets 212
scalar SimpleScenario.node[88].nic.mac1609_4 RXTXLostPackets 0
scalar SimpleScenario.node[88].nic.mac1609_4 TotalLostPackets 212
scalar SimpleScenario.node[88].nic.mac1609_4 DroppedPacketsInMac 0
scalar SimpleScenario.node[88].nic.mac1609_4 TooLittleTime 0
scalar SimpleScenario.node[88].nic.mac1609_4 TimesIntoBackoff 263
scalar SimpleScenario.node[88].nic.mac1609_4 SlotsBackoff 1977
scalar SimpleScenario.node[88].nic.mac1609_4 NumInternalContention 0
scalar SimpleScenario.node[88].nic.mac1609_4 totalBusyTime 0.065679
scalar SimpleScenario.node[89].appl generatedWSMs 0
scalar SimpleScenario.node[89].appl receivedWSMs 0
scalar SimpleScenario.node[89].appl generatedBSMs 257
scalar SimpleScenario.node[89].appl receivedBSMs 116
scalar SimpleScenario.node[89].nic.phy80211p busyTime 0.00022724
scalar SimpleScenario.node[89].nic.mac1609_4 ReceivedUnicastPackets 0
scalar SimpleScenario.node[89].nic.mac1609_4 ReceivedBroadcasts 116
scalar SimpleScenario.node[89].nic.mac1609_4 SentPackets 257
scalar SimpleScenario.node[89].nic.mac1609_4 SentAcknowledgements 0
scalar SimpleScenario.node[89].nic.mac1609_4 SNIRLostPackets 321
scalar SimpleScenario.node[89].nic.mac1609_4 RXTXLostPackets 0
scalar SimpleScenario.node[89].nic.mac1609_4 TotalLostPackets 321
scalar SimpleScenario.node[89].nic.mac1609_4 DroppedPacketsInMac 0
scalar SimpleScenario.node[89].nic.mac1609_4 TooLittleTime 0
scalar SimpleScenario.node[89].nic.mac1609_4 TimesIntoBackoff 257
scalar SimpleScenario.node[89].nic.mac1609_4 SlotsBackoff 1976
scalar SimpleScenario.node[89].nic.mac1609_4 NumInternalContention 0
scalar SimpleScenario.node[89].nic.mac1609_4 totalBusyTime 0.072433
scalar SimpleScenario.node[90].appl generatedWSMs 0
scalar SimpleScenario.node[90].appl receivedWSMs 0
scalar SimpleScenario.node[90].appl generatedBSMs 283
scalar SimpleScenario.node[90].appl receivedBSMs 207
scalar SimpleScenario.node[90].nic.phy80211p busyTime 0.00017888
scalar SimpleScenario.node[90].nic.mac1609_4 ReceivedUnicastPackets 0
scalar SimpleScenario.node[90].nic.mac1609_4 ReceivedBroadcasts 207
scalar SimpleScenario.node[90].nic.mac1609_4 SentPackets 283
scalar SimpleScenario.node[90].nic.mac1609_4 SentAcknowledgements 0
scalar SimpleScenario.node[90].nic.mac1609_4 SNIRLostPackets 137
scalar SimpleScenario.node[90].nic.mac1609_4 RXTXLostPackets 0
scalar SimpleScenario.node[90].nic.mac1609_4 TotalLostPackets 137
scalar SimpleScenario.node[90].nic.mac1609_4 DroppedPacketsInMac 0
scalar SimpleScenario.node[90].nic.mac1609_4 TooLittleTime 0
scalar SimpleScenario.node[90].nic.mac1609_4 TimesIntoBackoff 283
scalar SimpleScenario.node[90].nic.mac1609_4 SlotsBackoff 2174
scalar SimpleScenario.node[90].nic.mac1609_4 NumInternalContention 0
scalar SimpleScenario.node[90].nic.mac1609_4 totalBusyTime 0.065491
scalar SimpleScenario.node[91].appl generatedWSMs 0
scalar SimpleScenario.node[91].appl receivedWSMs 0
scalar SimpleScenario.node[91].appl generatedBSMs 233
scalar SimpleScenario.node[91].appl receivedBSMs 63
scalar SimpleScenario.node[91].nic.phy80211p busyTime 0.00011388
scalar SimpleScenario.node[91].nic.mac1609_4 ReceivedUnicastPackets 0
scalar SimpleScenario.node[91].nic.mac1609_4 ReceivedBroadcasts 63
scalar SimpleScenario.node[91].nic.mac1609_4 SentPackets 233
scalar SimpleScenario.node[91].nic.mac1609_4 SentAcknowledgements 0
scalar SimpleScenario.node[91].nic.mac1609_4 SNIRLostPackets 156
scalar SimpleScenario.node[91].nic.mac1609_4 RXTXLostPackets 0
scalar SimpleScenario.node[91].nic.mac1609_4 TotalLostPackets 156
scalar SimpleScenario.node[91].nic.mac1609_4 DroppedPacketsInMac 0
scalar SimpleScenario.node[91].nic.mac1609_4 TooLittleTime 0
scalar SimpleScenario.node[91].nic.mac1609_4 TimesIntoBackoff 233
scalar SimpleScenario.node[91].nic.mac1609_4 SlotsBackoff 1903
scalar SimpleScenario.node[91].nic.mac1609_4 NumInternalContention 0
scalar SimpleScenario.node[91].nic.mac1609_4 totalBusyTime 0.047241
scalar SimpleScenario.node[92].appl generatedWSMs 0
scalar SimpleScenario.node[92].appl receivedWSMs 0
scalar SimpleScenario.node[92].appl generatedBSMs 278
scalar SimpleScenario.node[92].appl receivedBSMs 177
scalar SimpleScenario.node[92].nic.phy80211p busyTime 0.00021528
scalar SimpleScenario.node[92].nic.mac1609_4 ReceivedUnicastPackets 0
scalar SimpleScenario.node[92].nic.mac1609_4 ReceivedBroadcasts 177
scalar SimpleScenario.node[92].nic.mac1609_4 SentPackets 278
scalar SimpleScenario.node[92].nic.mac1609_4 SentAcknowledgements 0
scalar SimpleScenario.node[92].nic.mac1609_4 SNIRLostPackets 237
scalar SimpleScenario.node[92].nic.mac1609_4 RXTXLostPackets 0
scalar SimpleScenario.node[92].nic.mac1609_4 TotalLostPackets 237
scalar SimpleScenario.node[92].nic.mac1609_4 DroppedPacketsInMac 0
scalar SimpleScenario.node[92].nic.mac1609_4 TooLittleTime 0
scalar SimpleScenario.node[92].nic.mac1609_4 TimesIntoBackoff 278
scalar SimpleScenario.node[92].nic.mac1609_4 SlotsBackoff 2023
scalar SimpleScenario.node[92].nic.mac1609_4 NumInternalContention 0
scalar SimpleScenario.node[92].nic.mac1609_4 totalBusyTime 0.072246
scalar SimpleScenario.node[93].appl generatedWSMs 0
scalar SimpleScenario.node[93].appl receivedWSMs 0
scalar SimpleScenario.node[93].appl generatedBSMs 208
scalar SimpleScenario.node[93].appl receivedBSMs 14
scalar SimpleScenario.node[93].nic.phy80211p busyTime 5.2e-05
scalar SimpleScenario.node[93].nic.mac1609_4 ReceivedUnicastPackets 0
scalar SimpleScenario.node[93].nic.mac1609_4 ReceivedBroadcasts 14
scalar SimpleScenario.node[93].nic.mac1609_4 SentPackets 208
scalar SimpleScenario.node[93].nic.mac1609_4 SentAcknowledgements 0
scalar SimpleScenario.node[93].nic.mac1609_4 SNIRLostPackets 86
scalar SimpleScenario.node[93].nic.mac1609_4 RXTXLostPackets 0
scalar SimpleScenario.node[93].nic.mac1609_4 TotalLostPackets 86
scalar SimpleScenario.node[93].nic.mac1609_4 DroppedPacketsInMac 0
scalar SimpleScenario.node[93].nic.mac1609_4 TooLittleTime 0
scalar SimpleScenario.node[93].nic.mac1609_4 TimesIntoBackoff 208
scalar SimpleScenario.node[93].nic.mac1609_4 SlotsBackoff 1537
scalar SimpleScenario.node[93].nic.mac1609_4 NumInternalContention 0
scalar SimpleScenario.node[93].nic.mac1609_4 totalBusyTime 0.03224
scalar SimpleScenario.node[94].appl generatedWSMs 0
scalar SimpleScenario.node[94].appl receivedWSMs 0
scalar SimpleScenario.node[94].appl generatedBSMs 236
scalar SimpleScenario.node[94].appl receivedBSMs 76
scalar SimpleScenario.node[94].nic.phy80211p busyTime 0.0001612
scalar SimpleScenario.node[94].nic.mac1609_4 ReceivedUnicastPackets 0
scalar SimpleScenario.node[94].nic.mac1609_4 ReceivedBroadcasts 76
scalar SimpleScenario.node[94].nic.mac1609_4 SentPackets 236
scalar SimpleScenario.node[94].nic.mac1609_4 SentAcknowledgements 0
scalar SimpleScenario.node[94].nic.mac1609_4 SNIRLostPackets 234
scalar SimpleScenario.node[94].nic.mac1609_4 RXTXLostPackets 0
scalar SimpleScenario.node[94].nic.mac1609_4 TotalLostPackets 234
scalar SimpleScenario.node[94].nic.mac1609_4 DroppedPacketsInMac 0
scalar SimpleScenario.node[94].nic.mac1609_4 TooLittleTime 0
scalar SimpleScenario.node[94].nic.mac1609_4 TimesIntoBackoff 236
scalar SimpleScenario.node[94].nic.mac1609_4 SlotsBackoff 1858
scalar SimpleScenario.node[94].nic.mac1609_4 NumInternalContention 0
scalar SimpleScenario.node[94].nic.mac1609_4 totalBusyTime 0.05702
scalar SimpleScenario.node[95].appl generatedWSMs 0
scalar SimpleScenario.node[95].appl receivedWSMs 0
scalar SimpleScenario.node[95].appl generatedBSMs 274
scalar SimpleScenario.node[95].appl receivedBSMs 150
scalar SimpleScenario.node[95].nic.phy80211p busyTime 0.00017108
scalar SimpleScenario.node[95].nic.mac1609_4 ReceivedUnicastPackets 0
scalar SimpleScenario.node[95].nic.mac1609_4 ReceivedBroadcasts 150
scalar SimpleScenario.node[95].nic.mac1609_4 SentPackets 274
scalar SimpleScenario.node[95].nic.mac1609_4 SentAcknowledgements 0
scalar SimpleScenario.node[95].nic.mac1609_4 SNIRLostPackets 179
scalar SimpleScenario.node[95].nic.mac1609_4 RXTXLostPackets 0
scalar SimpleScenario.node[95].nic.mac1609_4 TotalLostPackets 179
scalar SimpleScenario.node[95].nic.mac1609_4 DroppedPacketsInMac 0
scalar SimpleScenario.node[95].nic.mac1609_4 TooLittleTime 0
scalar SimpleScenario.node[95].nic.mac1609_4 TimesIntoBackoff 274
scalar SimpleScenario.node[95].nic.mac1609_4 SlotsBackoff 1975
scalar SimpleScenario.node[95].nic.mac1609_4 NumInternalContention 0
scalar SimpleScenario.node[95].nic.mac1609_4 totalBusyTime 0.062986
scalar SimpleScenario.node[96].appl generatedWSMs 0
scalar SimpleScenario.node[96].appl receivedWSMs 0
scalar SimpleScenario.node[96].appl generatedBSMs 286
scalar SimpleScenario.node[96].appl receivedBSMs 195
scalar SimpleScenario.node[96].nic.phy80211p busyTime 0.00022204
scalar SimpleScenario.node[96].nic.mac1609_4 ReceivedUnicastPackets 0
scalar SimpleScenario.node[96].nic.mac1609_4 ReceivedBroadcasts 195
scalar SimpleScenario.node[96].nic.mac1609_4 SentPackets 286
scalar SimpleScenario.node[96].nic.mac1609_4 SentAcknowledgements 0
scalar SimpleScenario.node[96].nic.mac1609_4 SNIRLostPackets 232
scalar SimpleScenario.node[96].nic.mac1609_4 RXTXLostPackets 0
scalar SimpleScenario.node[96].nic.mac1609_4 TotalLostPackets 232
scalar SimpleScenario.node[96].nic.mac1609_4 DroppedPacketsInMac 0
scalar SimpleScenario.node[96].nic.mac1609_4 TooLittleTime 0
scalar SimpleScenario.node[96].nic.mac1609_4 TimesIntoBackoff 286
scalar SimpleScenario.node[96].nic.mac1609_4 SlotsBackoff 2162
scalar SimpleScenario.node[96].nic.mac1609_4 NumInternalContention 0
scalar SimpleScenario.node[96].nic.mac1609_4 totalBusyTime 0.074438
scalar SimpleScenario.node[97].appl generatedWSMs 0
scalar SimpleScenario.node[97].appl receivedWSMs 0
scalar SimpleScenario.node[97].appl generatedBSMs 293
scalar SimpleScenario.node[97].appl receivedBSMs 223
scalar SimpleScenario.node[97].nic.phy80211p busyTime 0.00026728
scalar SimpleScenario.node[97].nic.mac1609_4 ReceivedUnicastPackets 0
scalar SimpleScenario.node[97].nic.mac1609_4 ReceivedBroadcasts 223
scalar SimpleScenario.node[97].nic.mac1609_4 SentPackets 293
scalar SimpleScenario.node[97].nic.mac1609_4 SentAcknowledgements 0
scalar SimpleScenario.node[97].nic.mac1609_4 SNIRLostPackets 291
scalar SimpleScenario.node[97].nic.mac1609_4 RXTXLostPackets 0
scalar SimpleScenario.node[97].nic.mac1609_4 TotalLostPackets 291
scalar SimpleScenario.node[97].nic.mac1609_4 DroppedPacketsInMac 0
scalar SimpleScenario.node[97].nic.mac1609_4 TooLittleTime 0
scalar SimpleScenario.node[97].nic.mac1609_4 TimesIntoBackoff 293
scalar SimpleScenario.node[97].nic.mac1609_4 SlotsBackoff 2302
scalar SimpleScenario.node[97].nic.mac1609_4 NumInternalContention 0
scalar SimpleScenario.node[97].nic.mac1609_4 totalBusyTime 0.084221
scalar SimpleScenario.node[98].appl generatedWSMs 0
scalar SimpleScenario.node[98].appl receivedWSMs 0
scalar SimpleScenario.node[98].appl generatedBSMs 281
scalar SimpleScenario.node[98].appl receivedBSMs 175
scalar SimpleScenario.node[98].nic.phy80211p busyTime 0.00024076
scalar SimpleScenario.node[98].nic.mac1609_4 ReceivedUnicastPackets 0
scalar SimpleScenario.node[98].nic.mac1609_4 ReceivedBroadcasts 175
scalar SimpleScenario.node[98].nic.mac1609_4 SentPackets 281
scalar SimpleScenario.node[98].nic.mac1609_4 SentAcknowledgements 0
scalar SimpleScenario.node[98].nic.mac1609_4 SNIRLostPackets 288
scalar SimpleScenario.node[98].nic.mac1609_4 RXTXLostPackets 0
scalar SimpleScenario.node[98].nic.mac1609_4 TotalLostPackets 288
scalar SimpleScenario.node[98].nic.mac1609_4 DroppedPacketsInMac 0
scalar SimpleScenario.node[98].nic.mac1609_4 TooLittleTime 0
scalar SimpleScenario.node[98].nic.mac1609_4 TimesIntoBackoff 281
scalar SimpleScenario.node[98].nic.mac1609_4 SlotsBackoff 2142
scalar SimpleScenario.node[98].nic.mac1609_4 NumInternalContention 0
scalar SimpleScenario.node[98].nic.mac1609_4 totalBusyTime 0.077553
scalar SimpleScenario.node[99].appl generatedWSMs 0
scalar SimpleScenario.node[99].appl receivedWSMs 0
scalar SimpleScenario.node[99].appl generatedBSMs 357
scalar SimpleScenario.node[99].appl receivedBSMs 372
scalar SimpleScenario.node[99].nic.phy80211p busyTime 0.00039416000000001
scalar SimpleScenario.node[99].nic.mac1609_4 ReceivedUnicastPackets 0
scalar SimpleScenario.node[99].nic.mac1609_4 ReceivedBroadcasts 372
scalar SimpleScenario.node[99].nic.mac1609_4 SentPackets 357
scalar SimpleScenario.node[99].nic.mac1609_4 SentAcknowledgements 0
scalar SimpleScenario.node[99].nic.mac1609_4 SNIRLostPackets 386
scalar SimpleScenario.node[99].nic.mac1609_4 RXTXLostPackets 0
scalar SimpleScenario.node[99].nic.mac1609_4 TotalLostPackets 386
scalar SimpleScenario.node[99].nic.mac1609_4 DroppedPacketsInMac 0
scalar SimpleScenario.node[99].nic.mac1609_4 TooLittleTime 0
scalar SimpleScenario.node[99].nic.mac1609_4 TimesIntoBackoff 360
scalar SimpleScenario.node[99].nic.mac1609_4 SlotsBackoff 2773
scalar SimpleScenario.node[99].nic.mac1609_4 NumInternalContention 0
scalar SimpleScenario.node[99].nic.mac1609_4 totalBusyTime 0.116317

