version 2
run Default-0-20190708-23:11:06-10113
attr configname Default
attr datetime 20190708-23:11:06
attr experiment Default
attr inifile omnetpp.ini
attr iterationvars ""
attr iterationvarsf ""
attr measurement ""
attr network SimpleScenario
attr processid 10113
attr repetition 0
attr replication #0
attr resultdir results
attr runnumber 0
attr seedset 0
param *.node[*].appl.sendBeacons true
param *.playgroundSizeX 4000m
param *.playgroundSizeY 4000m
param *.playgroundSizeZ 1000m
param *.world.useTorus false
param *.world.use2D false
param *.annotations.draw true
param *.connectionManager.sendDirect true
param *.connectionManager.maxInterfDist 400m
param *.connectionManager.drawMaxIntfDist false
param *.**.nic.mac1609_4.useServiceChannel false
param *.**.nic.mac1609_4.txPower 5mW
param *.**.nic.mac1609_4.bitrate 6Mbps
param *.**.nic.phy80211p.minPowerLevel -110dBm
param *.**.nic.phy80211p.useNoiseFloor true
param *.**.nic.phy80211p.noiseFloor -98dBm
param *.**.nic.phy80211p.decider "xmldoc(\"config.xml\")"
param *.**.nic.phy80211p.analogueModels "xmldoc(\"config.xml\")"
param *.**.nic.phy80211p.usePropagationDelay true
param *.**.nic.phy80211p.antenna "xmldoc(\"antenna.xml\", \"/root/Antenna[@id='monopole']\")"
param *.node[*].nic.phy80211p.antennaOffsetY "0 m"
param *.node[*].nic.phy80211p.antennaOffsetZ "1.895 m"
param *.node[*].applType "\"SimpleWaveApp\""
param *.node[*].appl.headerLength "80 bit"
param *.node[*].appl.sendBeacons false
param *.node[*].appl.dataOnSch false
param *.node[*].appl.beaconInterval 1s
param *.node[*].appl.beaconPriority 2
param *.node[*].mobility.x -1
param *.node[*].mobility.y -1
param *.node[*].mobility.z -1
param *.node[*].mobility.angle "uniform(0deg, 359deg)"
param *.node[*].mobility.acceleration 0mpss
param *.node[*].mobility.updateInterval 100ms
param *.node[*].mobility.speed "uniform(22mps, 35mps)"

vector 0 SimpleScenario.node[75].appl "" ETV
vector 1 SimpleScenario.node[31].appl "" ETV
vector 2 SimpleScenario.node[0].appl "" ETV
vector 3 SimpleScenario.node[95].appl "" ETV
vector 4 SimpleScenario.node[28].appl "" ETV
vector 5 SimpleScenario.node[83].appl "" ETV
vector 6 SimpleScenario.node[1].appl "" ETV
vector 7 SimpleScenario.node[53].appl "" ETV
vector 8 SimpleScenario.node[38].appl "" ETV
vector 9 SimpleScenario.node[57].appl "" ETV
vector 10 SimpleScenario.node[86].appl "" ETV
vector 11 SimpleScenario.node[96].appl "" ETV
vector 12 SimpleScenario.node[26].appl "" ETV
vector 13 SimpleScenario.node[81].appl "" ETV
vector 14 SimpleScenario.node[98].appl "" ETV
vector 15 SimpleScenario.node[62].appl "" ETV
vector 16 SimpleScenario.node[60].appl "" ETV
vector 17 SimpleScenario.node[23].appl "" ETV
vector 18 SimpleScenario.node[13].appl "" ETV
vector 19 SimpleScenario.node[7].appl "" ETV
vector 20 SimpleScenario.node[59].appl "" ETV
vector 21 SimpleScenario.node[64].appl "" ETV
vector 22 SimpleScenario.node[61].appl "" ETV
vector 23 SimpleScenario.node[66].appl "" ETV
vector 24 SimpleScenario.node[39].appl "" ETV
vector 25 SimpleScenario.node[78].appl "" ETV
vector 26 SimpleScenario.node[99].appl "" ETV
vector 27 SimpleScenario.node[24].appl "" ETV
vector 28 SimpleScenario.node[40].appl "" ETV
vector 29 SimpleScenario.node[4].appl "" ETV
vector 30 SimpleScenario.node[85].appl "" ETV
vector 31 SimpleScenario.node[67].appl "" ETV
vector 32 SimpleScenario.node[89].appl "" ETV
vector 33 SimpleScenario.node[87].appl "" ETV
vector 34 SimpleScenario.node[90].appl "" ETV
vector 35 SimpleScenario.node[79].appl "" ETV
vector 36 SimpleScenario.node[21].appl "" ETV
vector 37 SimpleScenario.node[41].appl "" ETV
vector 38 SimpleScenario.node[45].appl "" ETV
vector 39 SimpleScenario.node[16].appl "" ETV
vector 40 SimpleScenario.node[20].appl "" ETV
vector 41 SimpleScenario.node[48].appl "" ETV
vector 42 SimpleScenario.node[8].appl "" ETV
vector 43 SimpleScenario.node[32].appl "" ETV
vector 44 SimpleScenario.node[11].appl "" ETV
vector 45 SimpleScenario.node[70].appl "" ETV
vector 46 SimpleScenario.node[84].appl "" ETV
vector 47 SimpleScenario.node[82].appl "" ETV
vector 48 SimpleScenario.node[25].appl "" ETV
vector 49 SimpleScenario.node[72].appl "" ETV
vector 50 SimpleScenario.node[92].appl "" ETV
vector 51 SimpleScenario.node[10].appl "" ETV
vector 52 SimpleScenario.node[46].appl "" ETV
vector 53 SimpleScenario.node[88].appl "" ETV
vector 54 SimpleScenario.node[12].appl "" ETV
vector 55 SimpleScenario.node[73].appl "" ETV
vector 56 SimpleScenario.node[22].appl "" ETV
vector 57 SimpleScenario.node[56].appl "" ETV
vector 58 SimpleScenario.node[58].appl "" ETV
vector 59 SimpleScenario.node[35].appl "" ETV
vector 60 SimpleScenario.node[6].appl "" ETV
vector 61 SimpleScenario.node[19].appl "" ETV
vector 62 SimpleScenario.node[14].appl "" ETV
vector 63 SimpleScenario.node[15].appl "" ETV
vector 64 SimpleScenario.node[93].appl "" ETV
vector 65 SimpleScenario.node[63].appl "" ETV
vector 66 SimpleScenario.node[91].appl "" ETV
vector 67 SimpleScenario.node[97].appl "" ETV
vector 68 SimpleScenario.node[55].appl "" ETV
vector 69 SimpleScenario.node[94].appl "" ETV
vector 70 SimpleScenario.node[51].appl "" ETV
vector 71 SimpleScenario.node[42].appl "" ETV
vector 72 SimpleScenario.node[65].appl "" ETV
vector 73 SimpleScenario.node[36].appl "" ETV
vector 74 SimpleScenario.node[2].appl "" ETV
vector 75 SimpleScenario.node[33].appl "" ETV
vector 76 SimpleScenario.node[37].appl "" ETV
vector 77 SimpleScenario.node[27].appl "" ETV
vector 78 SimpleScenario.node[43].appl "" ETV
vector 79 SimpleScenario.node[76].appl "" ETV
vector 80 SimpleScenario.node[49].appl "" ETV
vector 81 SimpleScenario.node[5].appl "" ETV
vector 82 SimpleScenario.node[52].appl "" ETV
vector 83 SimpleScenario.node[77].appl "" ETV
vector 84 SimpleScenario.node[71].appl "" ETV
vector 85 SimpleScenario.node[17].appl "" ETV
vector 86 SimpleScenario.node[9].appl "" ETV
vector 87 SimpleScenario.node[54].appl "" ETV
vector 88 SimpleScenario.node[30].appl "" ETV
vector 89 SimpleScenario.node[50].appl "" ETV
vector 90 SimpleScenario.node[18].appl "" ETV
vector 91 SimpleScenario.node[69].appl "" ETV
vector 92 SimpleScenario.node[80].appl "" ETV
vector 93 SimpleScenario.node[3].appl "" ETV
vector 94 SimpleScenario.node[47].appl "" ETV
vector 95 SimpleScenario.node[68].appl "" ETV
vector 96 SimpleScenario.node[34].appl "" ETV
vector 97 SimpleScenario.node[44].appl "" ETV
vector 98 SimpleScenario.node[29].appl "" ETV
vector 99 SimpleScenario.node[74].appl "" ETV
0	65	0.022939639414	0
0	3037	1.022938164477	1
0	6122	2.022936827247	1
0	9271	3.022935715719	1
0	92594	27.427194458504	1
0	95928	28.427198740505	0
0	115838	34.303601995598	1
0	119152	35.30360599898	1
0	150820	45.72850733541	2
0	153854	46.728496198293	1
0	156877	47.728497891277	1
0	165544	50.810497433526	1
0	168356	51.810495938707	2
0	171069	52.728507824724	2
0	171265	52.810501412353	2
0	174188	53.728497146322	2
0	174381	53.810490667434	2
0	177426	54.810498424697	3
0	178853	55.222798441411	3
0	180559	55.810498781039	3
0	181952	56.22280213375	3
0	183693	56.810498762153	3
0	185084	57.222789168666	3
0	186782	57.81049442936	3
0	188169	58.222791155409	3
0	189832	58.810489780105	3
0	191214	59.222799333905	3
0	192922	59.810497813073	3
0	194274	60.222794370318	2
0	196070	60.810495561713	2
0	197507	61.222792295703	2
0	199318	61.81049468585	2
0	200801	62.222798682759	2
0	202666	62.810496168983	2
0	204137	63.222800463459	2
0	205906	63.810499966775	2
0	214321	66.438349504403	2
0	217555	67.43834827251	3
0	220733	68.438347007972	3
0	224229	69.438345729408	3
0	227674	70.438347763884	1
0	231215	71.438349665648	1
0	234584	72.438351455479	1
0	237988	73.438353163938	1
0	241394	74.43835483245	1
0	244830	75.43835650944	1
0	248272	76.438345241738	1
0	251779	77.438347067162	1
0	255241	78.438349012633	1
0	258647	79.438351096207	1
0	262094	80.43835332988	1
0	265654	81.438355721749	1
0	347423	104.143680427497	2
0	571512	171.703405992061	2
0	575411	172.703401700939	1
0	579408	173.703396207539	1
0	583403	174.703394769895	1
0	587561	175.703406064981	1
0	591888	176.703404180772	2
0	593150	177.022946955648	2
0	596094	177.703397913937	2
0	597339	178.022940449739	2
0	600384	178.703404454012	2
0	601648	179.022946791005	2
0	604524	179.703393218012	2
0	605780	180.022935416633	2
0	608489	180.703395039059	2
0	609749	181.022937181798	2
0	612395	181.703397135232	2
0	613721	182.02293931627	2
0	616284	182.703406154783	2
0	617598	183.02294846009	2
0	621244	184.022937270247	2
0	624759	185.022945194171	2
0	649800	193.236518038454	3
0	652816	194.236520683531	1
0	655746	195.236523298182	1
0	658696	196.236525887127	1
1	112	0.031467739965	0
1	2369	0.823755252432	0
1	3088	1.031463208009	2
1	5481	1.823744761364	2
1	100050	29.715812887324	2
1	103385	30.715815381597	1
1	106759	31.715816818918	1
1	110253	32.715808883837	1
1	113745	33.715809260256	1
1	205186	63.538880884241	1
1	208347	64.538883556375	1
1	211466	65.538888555743	1
1	214655	66.538886972628	1
1	217853	67.538884807036	1
1	221127	68.538878170104	1
1	221534	68.645129803379	1
1	224638	69.538878497068	2
1	225007	69.645129921175	2
1	228098	70.538878997211	2
1	228469	70.645130276304	2
1	231596	71.538879800498	2
1	231957	71.645131021791	2
1	235247	72.645124927914	2
1	238636	73.645123722158	2
1	242036	74.645122808126	2
1	245439	75.645125561267	2
1	321643	97.428570708447	2
1	325334	98.428563521374	2
1	325718	98.518255188806	2
1	329054	99.428571644402	2
1	329437	99.518250285946	2
1	333103	100.518254890832	2
1	336520	101.428563333854	2
1	336882	101.518248023753	2
1	340726	102.518250246599	2
1	344651	103.518244353216	2
1	348575	104.518251678424	2
1	352448	105.518253626737	2
1	368632	109.518244031676	2
1	372610	110.518245837458	1
1	376457	111.518247684303	1
1	380322	112.518249592243	1
1	384163	113.518251577614	1
1	387889	114.518253653244	1
1	465681	138.73565473958	2
1	468926	139.73565395043	1
1	472059	140.735653094685	1
1	475156	141.735660131598	1
1	478189	142.735654122134	1
1	515113	154.814439698653	1
1	518430	155.814442501343	1
2	275	0.04838055962	0
2	3270	1.048392381006	1
2	6339	2.048391301925	1
2	9488	3.048380737707	1
2	12697	4.048383373261	1
2	55622	16.610957784416	2
2	59000	17.610947057019	1
2	62576	18.610949110677	1
2	66110	19.610951021773	1
2	69629	20.610952902972	1
2	73046	21.610954876807	1
2	76357	22.610957037973	1
2	79767	23.610946444421	1
2	83176	24.610949128992	1
2	103899	30.913546163259	2
2	104831	31.123615732318	1
2	108309	32.12361816638	1
2	111769	33.123620473369	2
2	115258	34.123622665075	2
2	117724	34.913546390743	2
2	118632	35.123615482034	2
2	121996	36.12361407938	2
2	125225	37.123612602761	2
2	128216	38.12362410112	2
2	131186	39.123622625752	2
2	134073	40.123615087765	1
2	136996	41.123616312577	1
2	140016	42.123624554781	1
2	143060	43.123612963725	1
2	146055	44.123624833909	1
2	149009	45.123623894138	1
2	152025	46.12361352596	1
2	186111	57.539572461524	1
2	331001	99.944813625905	2
2	334719	100.944816182207	1
2	338533	101.944818601476	1
2	342365	102.944820935419	1
2	346244	103.944819859639	1
2	350139	104.94481867316	1
2	354001	105.944817452624	1
2	357862	106.944816266601	1
2	361890	107.944815174903	1
2	391700	115.540214742898	1
2	395256	116.540216862473	1
2	398694	117.54020589112	1
2	402054	118.540207850671	1
2	405377	119.540214685721	1
2	408640	120.540204871517	1
2	411745	121.540206774928	1
2	414886	122.540213587651	1
2	417923	123.540207478673	1
2	420903	124.540214540887	1
2	423891	125.528326585175	3
2	423981	125.540210878832	3
2	425739	126.116838901863	3
2	426966	126.528330509237	3
2	427051	126.540214929738	3
2	428863	127.116843031872	3
2	430144	127.540207034167	3
2	431996	128.116848163112	3
2	433309	128.54020583048	3
2	435167	129.116850303779	3
2	438300	130.116842412272	3
2	441442	131.116845299841	3
2	469495	139.942862187724	3
2	483443	144.539568101367	0
2	486336	145.539570728391	0
2	489309	146.539573333704	1
3	687	0.216431871129	0
3	3740	1.216430671401	1
3	6856	2.216429674581	1
3	10016	3.216432193182	1
3	13237	4.216421650855	1
3	16526	5.216424065725	1
3	19911	6.216426457573	1
3	23381	7.21642539077	1
3	26830	8.216424212214	1
3	30330	9.216422996863	1
3	31490	9.528323735814	1
3	33898	10.216429245221	1
3	35119	10.528324015437	1
3	37527	11.216424765343	1
3	119954	35.518195893986	1
3	123334	36.51819871158	1
3	126367	37.518201482776	1
3	129358	38.518204227594	1
3	214468	66.51240930264	1
3	217695	67.512408367498	1
3	220875	68.512407045916	1
3	224375	69.512406763964	1
3	227817	70.51240503988	1
3	231358	71.512410352502	1
3	234722	72.512408840588	1
3	238121	73.512407607951	1
3	355674	106.303602898377	1
3	359687	107.30361159585	0
3	363719	108.303601022382	1
3	367684	109.30360469776	1
3	371716	110.303600058553	1
3	375525	111.303602482053	1
3	379361	112.303606775948	1
3	383280	113.303606518108	1
3	385427	113.942854964547	1
3	387011	114.303600854879	1
3	389117	114.94286227378	1
3	390678	115.303608390074	1
3	394294	116.30360829453	2
3	396380	116.942851514028	2
3	397810	117.303611153743	2
3	399835	117.942854515417	2
3	403206	118.942853590975	2
3	406549	119.942851543169	2
3	409715	120.942862747724	2
3	412849	121.942854515071	2
3	416060	122.942853671095	2
3	419085	123.942861850775	1
3	422091	124.942860277314	1
3	425164	125.942858669863	1
3	428276	126.942857131339	1
3	431359	127.942855755514	1
3	434523	128.942854618197	1
3	437657	129.942853776272	1
3	440747	130.942856300776	1
3	443896	131.942858842778	1
3	447080	132.942861404793	1
3	450220	133.942863989239	1
3	453390	134.942853608676	1
3	456654	135.942863442614	1
3	459909	136.942860416456	1
3	466264	138.942855015175	1
3	469491	139.942862125269	1
3	475719	141.942856166624	1
3	646116	192.048390204875	1
3	649107	193.048392859145	1
3	651022	193.648687498625	1
3	652165	194.048388212105	1
3	654018	194.648689269857	2
3	656943	195.648684243663	2
3	659876	196.648685316304	2
3	662873	197.6486803853	2
3	665940	198.648679115025	2
3	669047	199.648681208987	1
4	794	0.236516757401	0
4	3848	1.236516859098	1
4	6969	2.236516817242	1
4	10136	3.236522714988	1
4	13377	4.236522651654	1
4	16651	5.236522721961	1
4	20054	6.236523000115	1
4	56042	16.726173261843	1
4	59419	17.726185411618	1
4	63025	18.726179039704	1
4	66554	19.726185515167	1
4	69833	20.648608398377	1
4	70089	20.726181635899	1
4	73246	21.648609956649	2
4	73512	21.726183306115	2
4	76559	22.648611058389	2
4	76813	22.72618459525	2
4	79992	23.648615534369	2
4	83376	24.648613869857	2
4	86679	25.648615794603	2
4	89995	26.648604810935	2
4	93255	27.648612298485	2
4	109941	32.616922691287	2
4	113443	33.61691003276	2
4	116935	34.616918405679	1
4	120260	35.616922265556	1
4	123633	36.616913172532	1
4	229629	71.038589404073	2
4	233095	72.038591874359	1
4	236404	73.038594254581	1
4	239807	74.038596545117	1
4	243230	75.038585746432	1
4	246607	76.038587859101	1
4	250138	77.038586481975	1
4	253663	78.038592021385	1
4	257112	79.038592827851	1
4	260573	80.038589942413	1
4	264088	81.038586706639	1
4	267712	82.038596271273	1
4	271264	83.038592792629	1
4	274770	84.038593748638	1
4	278191	85.038587726554	1
4	281613	86.038594850991	1
4	285291	87.038589211403	1
4	288779	88.038590555899	1
4	292232	89.038591926078	1
4	295697	90.038593341474	1
4	299137	91.038594816118	1
4	302552	92.038596359486	1
4	306038	93.038594546881	1
4	317318	96.216424873717	1
4	321039	97.216420368444	1
4	323927	98.038595406021	1
4	327687	99.038584531637	1
4	331388	100.038586745991	1
4	335092	101.038589049641	1
4	338935	102.038591443037	1
4	342788	103.038593926546	1
4	346667	104.038596500474	1
4	350526	105.038586165076	1
4	354396	106.038594920568	1
4	462093	137.616915504243	1
4	465253	138.616911105971	0
4	468401	139.616913728325	1
4	512241	153.946323674957	1
4	515602	154.946326139315	1
4	518904	155.946328468318	1
4	522342	156.946330719116	1
4	525890	157.946332959586	1
4	529466	158.9463314955	1
4	532941	159.946330030349	1
4	577752	173.236529730104	1
4	581777	174.236518040232	1
4	585876	175.236529398634	1
4	590108	176.236527500346	1
4	594344	177.236526743527	1
4	598621	178.23652021382	1
4	602850	179.236526587285	1
4	606853	180.236528284178	1
4	610805	181.23651714432	1
5	798	0.236516785054	0
5	3852	1.236517010689	1
5	6973	2.236517064419	2
5	10140	3.236523014103	2
5	13381	4.236522947985	2
5	16655	5.236522964385	2
5	20058	6.236523151962	2
5	27019	8.236521970739	2
5	68116	20.137173684592	1
5	71644	21.137172231194	1
5	74935	22.137170745523	1
5	78354	23.137169341901	1
5	81783	24.137168125528	1
5	128169	38.116844918682	1
5	131140	39.116849512692	1
5	134023	40.116844376465	1
5	136948	41.116843063449	1
5	139963	42.116845384707	1
5	140193	42.143680270376	1
5	143007	43.116848647309	1
5	143235	43.143683507942	1
5	146001	44.11684669319	1
5	148960	45.116840589455	2
5	149173	45.143675405793	2
5	151979	46.116843191141	2
5	152187	46.143677988365	2
5	155003	47.11684980079	2
5	155201	47.14367158101	2
5	158003	48.116839970598	2
5	158191	48.143674735986	2
5	160857	49.116848887179	2
5	161044	49.143683639962	2
5	163852	50.143673383939	2
5	166649	51.143676119532	2
5	169481	52.143671849084	2
5	172530	53.143680574962	2
5	214446	66.51129785793	2
5	220853	68.511301782641	1
5	224353	69.51129134055	1
5	227795	70.511300329064	1
5	231336	71.511292105358	1
5	234700	72.511303851392	1
5	238099	73.511302616856	1
5	241503	74.511301428029	1
5	244939	75.51130358217	1
5	248381	76.511292735727	1
5	251888	77.511294906069	1
5	255350	78.511297109841	1
5	258756	79.511299362365	1
5	262203	80.511301677266	1
5	265763	81.511291066343	1
5	269381	82.511299539619	1
5	276323	84.511303770996	1
5	352004	105.414023773868	2
5	360024	107.41403507962	1
5	364047	108.414024592415	1
5	368073	109.414027093181	1
5	372084	110.414029646418	1
5	379750	112.414034133709	1
5	410728	121.223138182225	1
5	413849	122.223147230659	1
5	416960	123.223149493586	1
5	419969	124.223139043212	1
5	423001	125.223137636947	1
5	426053	126.22314729066	1
5	433447	128.610952736484	1
5	436618	129.610951532877	1
5	442873	131.610948405866	2
5	446059	132.610951025683	2
5	531298	159.428730094214	1
5	537090	161.142730070541	0
5	538033	161.428727334154	1
5	541312	162.428720919895	1
5	544405	163.428727420639	1
5	547526	164.428729180024	1
5	550624	165.428718179419	1
5	551806	165.824634813239	2
5	554898	166.82463012013	2
5	572654	172.017788990789	3
5	576566	173.017790884994	1
5	578470	173.428727815623	1
5	580591	174.01779600213	1
5	582481	174.428723393811	1
5	584625	175.017791405439	1
5	588812	176.017793298325	1
5	593102	177.017795228678	1
5	597284	178.017797241864	1
5	601593	179.017799363619	1
5	605723	180.017788562252	1
5	609697	181.017792045334	1
5	613664	182.017794263791	1
5	617541	183.017796593495	1
5	621192	184.017799058106	1
6	847	0.244316379085	0
6	3915	1.244305161008	1
6	7038	2.244313173199	1
6	10205	3.244311458612	1
6	13448	4.244309559714	1
6	16722	5.244313186619	1
6	20125	6.244305269907	1
6	23619	7.244317699286	1
6	27084	8.244313274439	1
6	29267	8.94285831745	1
6	30564	9.244312194587	1
6	32809	9.94286311913	2
6	34154	10.244317129396	2
6	36437	10.942862917725	2
6	37784	11.244317066616	2
6	40001	11.942862711448	2
6	41195	12.244316999258	2
6	44622	13.244314329901	2
6	47978	14.244314565541	2
6	157621	48.005823119077	2
6	160480	49.005825645286	1
6	163302	50.005827978446	1
6	166086	51.00583021447	1
6	168897	52.005819470944	1
6	171915	53.005821860448	1
6	175015	54.005824468503	1
6	223521	69.236520511386	1
6	226987	70.236519240441	1
6	230516	71.236517794734	1
6	492429	147.624841515135	1
6	495377	148.624844156446	1
6	512567	154.039878710202	1
6	515920	155.039868266187	2
6	519241	156.039870434747	2
6	522704	157.039872259767	1
6	526219	158.039873866097	1
6	529793	159.039875505959	1
6	533232	160.039877406588	1
6	536590	161.039879665683	1
6	545295	163.735662409143	1
6	548421	164.735657634689	2
6	551563	165.735652517869	2
6	554680	166.735658110292	2
6	557867	167.735650550662	1
6	561012	168.726180594587	2
6	561161	168.735659538911	2
6	564431	169.726183211168	2
6	564598	169.735662375363	2
6	567871	170.726185751634	2
6	568062	170.735652195979	3
6	569761	171.216422034265	3
6	571607	171.726183697736	3
6	573619	172.216419553188	3
6	575510	172.726180893315	3
6	577573	173.216429378208	3
6	579502	173.726177661787	3
6	581588	174.216425857913	3
6	583497	174.726174354471	3
6	585697	175.216422375628	3
6	587655	175.726184270169	3
6	589950	176.216419255517	2
6	591997	176.726181667558	2
6	594186	177.216429756016	2
6	598461	178.216421931591	2
6	602699	179.216427612232	2
7	954	0.302400772068	0
7	4028	1.302403184935	1
7	7148	2.302405509185	1
7	10315	3.302397733008	1
7	13561	4.302398057112	1
7	15512	4.944819679894	1
7	16840	5.302400298139	1
7	18827	5.944815833867	2
7	22302	6.944822258254	2
7	25858	7.944815702978	2
7	29318	8.944822220337	2
7	32861	9.944823217954	2
7	36489	10.944815981462	1
7	40045	11.94481848951	1
7	43424	12.944818442063	1
7	46873	13.944818033741	1
7	50124	14.944823114036	1
7	53387	15.944814207511	1
7	56764	16.94481147916	1
7	60219	17.944818642887	2
7	61288	18.22279979256	2
7	63823	18.944816295535	2
7	64847	19.222797653712	2
7	68376	20.222792883556	2
7	71904	21.222801124644	2
7	75190	22.222796404588	2
7	78622	23.22279507736	2
7	82056	24.222790414476	1
7	85366	25.222802182173	1
7	88669	26.222801029186	1
7	91884	27.222799972333	1
7	123429	36.528332698863	2
7	126452	37.528327663755	1
7	129443	38.528320697289	1
7	132359	39.528326622877	1
7	135216	40.528332592679	1
7	138181	41.528322348315	1
7	141240	42.528325155406	1
7	254252	78.14272987005	1
7	257682	79.142724981932	1
7	261121	80.142732872933	1
7	264626	81.142722787876	1
7	268229	82.142733824484	1
7	271748	83.142728303071	1
7	274417	83.94632417797	1
7	275284	84.142729940829	1
7	278726	85.142732436287	1
7	282316	86.142729826721	1
7	286031	87.142727435996	1
7	529295	158.926552725266	1
8	1006	0.30649071376	0
8	4080	1.306486389647	0
8	6502	2.116356852352	0
8	7201	2.306485573821	2
8	9664	3.116355779923	2
8	12876	4.116353610065	2
8	16141	5.116359735397	2
8	19478	6.116352179244	2
8	22947	7.116350611394	2
8	26453	8.116362111495	2
8	29925	9.116360769747	1
8	33486	10.116359653104	1
8	37118	11.116358816253	1
8	94395	28.035040820664	2
8	97692	29.035043103306	1
8	100966	30.035045067785	1
8	104351	31.035046763902	1
8	107788	32.035035317244	1
8	111261	33.035036930679	1
8	114792	34.035038770949	1
8	118195	35.035040913741	1
8	121578	36.035043388035	1
8	236270	73.017791169503	1
8	239675	74.017789632224	1
8	243088	75.017793377755	1
8	246466	76.017795345236	2
8	246673	76.041595013782	2
8	249992	77.017791806412	2
8	250201	77.041604379699	2
8	253522	78.017793962	2
8	253731	78.041599441968	2
8	256967	79.017796250173	2
8	257175	79.041601639153	2
8	260658	80.041594294353	2
8	264166	81.041601729635	2
8	267791	82.041600405547	2
8	271343	83.041599035875	2
8	274844	84.041597834431	2
8	278270	85.041599320471	1
8	281692	86.041599765425	1
8	282061	86.116354869105	1
8	285370	87.0415988785	2
8	285746	87.116353610407	2
8	288850	88.041602598791	2
8	289207	88.116357037185	2
8	292291	89.041599524502	2
8	292656	89.116353776626	2
8	295756	90.041592979551	2
8	296135	90.116360177732	2
8	299196	91.041599387785	2
8	299577	91.116353672415	2
8	302613	92.041598903501	2
8	303023	92.116353400933	2
8	306099	93.041598786243	2
8	306527	93.116353595685	2
8	309616	94.041597359814	2
8	313059	95.041593471976	2
8	316583	96.041591493234	2
8	320254	97.041600477914	2
8	323994	98.041592311345	2
8	327743	99.041597194997	2
8	331459	100.041601639469	1
8	335198	101.041599689112	1
8	339046	102.04159400169	1
8	342899	103.041601578611	1
8	471025	140.427197377309	1
8	488202	146.137174076565	1
8	488976	146.427194078308	1
8	491115	147.137166616698	1
8	491897	147.427199619013	1
8	494058	148.13717206271	1
8	497060	149.137170468408	1
8	500218	150.137168892275	1
8	503343	151.137167390889	1
8	506576	152.137166013308	1
9	1078	0.32780239006	0
9	1355	0.423797032784	0
9	4153	1.327802393499	2
9	4436	1.423796919651	2
9	7288	2.327802337051	2
9	7567	2.423796776483	2
9	10449	3.327802294399	2
9	10744	3.42379668257	2
9	13969	4.423795168812	2
9	17247	5.423806717056	2
9	20632	6.423805391959	2
9	24152	7.42380425149	2
9	27645	8.423803345227	2
9	108769	32.244307725377	1
9	112206	33.244310096092	1
9	115702	34.244312349455	1
9	119016	35.244314583588	1
9	122398	36.24431690089	1
9	125643	37.244306386745	1
9	279841	85.518253529039	2
9	283462	86.518250854252	1
9	287107	87.518248404596	1
9	290497	88.518246698718	1
9	293969	89.518244908351	1
9	297457	90.518243081982	1
9	300861	91.518249198371	1
9	304338	92.518243859976	1
9	307821	93.518251330282	1
9	311169	94.518245676206	1
9	314624	95.518246970208	1
9	318254	96.518243817779	1
9	322020	97.518254396936	1
9	325330	98.428563466631	2
9	329046	99.428571469944	2
9	332739	100.428571180785	2
9	336513	101.428562817054	2
9	340383	102.428573485152	2
9	344305	103.428567557456	2
9	348232	104.428561841867	2
9	352145	105.428571381394	1
9	356122	106.428573349484	1
9	360211	107.428565707282	1
9	415038	122.610947658977	1
9	424142	125.610954326727	1
9	510694	153.430039878808	1
9	513963	154.43004242773	1
9	517284	155.430044817933	1
9	520694	156.430034099605	1
9	524304	157.430036336101	1
9	527827	158.430034833822	1
9	531350	159.430046301618	1
9	534725	160.430044839433	1
9	572387	171.940927722324	1
9	576298	172.940935155819	1
9	580303	173.940936561173	1
9	582053	174.327799564452	1
9	584289	174.940926613444	1
9	586171	175.327796905	2
9	588469	175.940936898767	2
9	590394	176.327793996357	2
9	592792	176.940934016494	2
9	594610	177.327800167236	2
9	596949	177.940927293807	2
9	598884	178.327800627309	2
9	601260	178.94092792885	2
9	603103	179.327793094832	2
9	605395	179.940935326445	2
9	607101	180.327792972366	2
9	609327	180.940934543891	2
9	611047	181.327792186918	3
9	613265	181.940933877628	3
9	614006	182.049349526488	3
9	614986	182.327798628878	3
9	617124	182.94092633764	3
9	617890	183.049354705948	3
9	618827	183.327791084234	3
9	621531	184.049349282515	3
9	625059	185.049348406904	3
9	628298	186.049347486681	3
9	631470	187.049346627702	3
9	634515	188.049353674187	3
9	637444	189.049348005741	1
9	640379	190.049355660653	1
9	643240	191.049346356902	1
10	1097	0.329753759887	1
10	4174	1.329742564198	1
10	7307	2.32975060252	1
10	10468	3.329748917168	1
10	13709	4.329747050054	1
10	16994	5.329750710829	1
10	20372	6.329742829693	1
10	22248	6.942859105729	1
10	23887	7.329751225876	3
10	24901	7.645120853252	3
10	25804	7.942854642837	3
10	27381	8.329746587482	3
10	28351	8.645129250809	3
10	29263	8.942858206262	3
10	30849	9.329745375544	3
10	32805	9.942863022022	3
10	34430	10.329750288469	3
10	36433	10.942862838065	3
10	38060	11.329750327402	3
10	39997	11.942862647732	3
10	41462	12.329750471857	3
10	44904	13.329748095466	3
10	107565	31.946332959849	2
10	111070	32.946322422654	0
10	114591	33.946324728068	1
10	117964	34.946326964037	1
10	121351	35.946329232546	1
10	124629	36.946331628695	1
10	127615	37.946321225416	1
10	212035	65.72618021177	1
10	215220	66.726182670059	1
10	218389	67.72618476189	1
10	221760	68.726173498226	1
10	225228	69.726174920746	1
10	228680	70.726176236565	1
10	232168	71.726177780852	1
10	235464	72.726179664383	1
10	238859	73.726178460778	1
10	242258	74.726177476857	1
10	363176	108.140685519567	2
10	367135	109.140693399133	1
10	370276	110.039877435296	2
10	371176	110.140687429043	2
10	374177	111.039874358082	2
10	374973	111.140685058172	2
10	377944	112.039876082794	2
10	378721	112.140686715484	2
10	380669	112.645122499686	3
10	381851	113.03987601879	3
10	382631	113.140686829765	3
10	384491	113.645122337288	3
10	385712	114.039875915317	3
10	386449	114.140693038956	3
10	388226	114.645120855608	3
10	389390	115.039870642871	3
10	390119	115.140688131145	3
10	391922	115.645129086371	3
10	393141	116.039871532002	3
10	395491	116.645127384221	3
10	396692	117.039870308013	3
10	398994	117.648683753529	3
10	400126	118.03987817506	3
10	402389	118.648685158734	4
10	405730	119.648688026019	4
10	408980	120.648684729869	4
10	412090	121.648686759348	3
10	415251	122.648688717653	3
10	418264	123.648679740403	2
10	421235	124.64867805291	1
10	424318	125.648689176785	1
10	427369	126.648682362262	2
10	430450	127.648681962808	2
10	431230	127.926553549987	2
10	433621	128.648684193295	2
10	434389	128.926542791194	2
10	497655	149.345998695665	3
10	500798	150.346001388492	1
10	503903	151.346003979485	1
10	507153	152.345993508409	1
10	510396	153.345996019931	1
10	513660	154.34599308543	1
10	522508	157.005820643823	2
10	526032	158.005827239368	2
10	529603	159.005825471871	2
10	533077	160.005823644001	2
10	536438	161.005821894472	2
10	539791	162.005823645674	2
10	542909	163.005825571135	2
10	546011	164.005827753188	1
10	549082	165.005830232007	1
11	1190	0.348877735444	1
11	4270	1.348876487509	1
11	7400	2.348875448947	1
11	10563	3.348877933363	1
11	13789	4.348880365497	1
11	17075	5.348882764419	1
11	20450	6.348885150576	1
11	23965	7.348884088588	1
11	27458	8.34888292514	1
11	30957	9.348881734559	1
11	34537	10.348875016417	1
11	38173	11.348883577692	1
11	63766	18.940933185234	2
11	67256	19.940933106724	1
11	70824	20.940932556171	1
11	74180	21.940931668745	1
11	77487	22.940930634335	1
11	80923	23.940929670765	1
11	84248	24.940928970948	1
11	87533	25.940928676218	1
11	90826	26.940926331683	1
11	94100	27.940937295839	1
11	97401	28.940935608685	1
11	100679	29.940937569486	1
11	104092	30.940930618415	1
11	107483	31.940929261137	1
11	110989	32.940927910377	1
11	114515	33.940926621297	1
11	117888	34.940938449816	1
11	121281	35.940935908531	1
11	146208	44.142732127256	1
11	149152	45.142722234561	0
11	152168	46.142734223887	1
11	155182	47.142733263462	1
11	350793	105.046845661156	1
11	354689	106.046844751569	1
11	358566	107.046846947031	1
11	362576	108.046835871133	1
11	366545	109.046837620489	1
11	370595	110.046839357285	1
11	374456	111.046841249827	1
11	378228	112.046843404135	1
11	382135	113.046845871052	1
11	472526	140.918752691462	1
11	498764	149.726173129363	2
11	501931	150.726175640708	1
11	505047	151.726178079929	1
11	508264	152.726180448939	1
11	511536	153.726182749962	1
11	514765	154.726184985589	1
11	518081	155.726174158845	1
11	521576	156.726176273263	1
11	525186	157.726178332965	1
11	528718	158.72618034274	1
11	532205	159.726182308123	1
11	535558	160.726184235443	1
11	538943	161.726173131833	1
11	542152	162.726175005185	1
11	545238	163.726176864022	1
11	548359	164.726185262389	1
11	551496	165.726180298156	1
11	554615	166.726173003397	1
11	557801	167.726178489967	1
11	561008	168.726180230401	1
11	564427	169.726183026311	1
11	567867	170.726185734393	1
11	570275	171.329752768449	2
11	571611	171.72618381983	2
11	574123	172.329749989505	2
11	575514	172.726181094899	2
11	578078	173.329746693465	2
11	579506	173.726177857092	2
11	582084	174.329743250558	2
11	583501	174.726174476038	2
11	586196	175.329752993138	2
11	587659	175.726184283571	2
11	590419	176.329750198967	2
11	591993	176.726181557007	2
11	594643	177.329748094748	2
11	596194	177.726185522672	2
11	598920	178.329753710076	2
11	600484	178.726178209844	2
11	603135	179.329746857788	2
11	604627	179.72618443109	2
11	608590	180.726179654078	2
11	612501	181.726175059794	2
12	1442	0.430044642831	2
12	2286	0.803628218349	2
12	4523	1.430044673005	2
12	5389	1.803628263838	2
12	7662	2.430044596325	2
12	10844	3.430037501122	2
12	11776	3.803621128179	2
12	14069	4.430037485813	2
12	15020	4.803621133658	2
12	17348	5.430037639156	2
12	18338	5.803621309487	2
12	20744	6.430038028694	2
12	21817	6.80362172314	2
12	24264	7.430036382297	2
12	25359	7.803620102419	2
12	28833	8.803622846926	2
12	153446	46.607344564336	2
12	156466	47.60734733169	0
12	159377	48.60734986555	1
12	162234	49.607339238887	1
12	165003	50.607341551527	1
12	167829	51.607343916547	1
12	170701	52.607346435473	1
12	173810	53.607349183359	1
12	223832	69.329745401438	2
12	227295	70.329744088383	1
12	230486	71.229827962657	1
12	233869	72.229819562257	1
12	237241	73.229823967965	2
12	240647	74.229818827789	2
12	241681	74.528329068806	2
12	244108	75.229824593277	2
12	245117	75.528329577122	3
12	247483	76.229825055191	2
12	248594	76.52832972422	2
12	250979	77.229825174838	2
12	252081	77.528329588846	2
12	254493	78.229825032036	2
12	255567	78.528329287374	2
12	257906	79.229824743466	2
12	258929	79.528328984168	2
12	261339	80.229819590865	2
12	262382	80.528331370168	2
12	264839	81.229821919862	2
12	265942	81.52832098414	2
12	268442	82.229824495419	2
12	269523	82.528323981818	2
12	271959	83.229827496686	2
12	272978	83.52832750084	2
12	556915	167.4168347239	2
12	560123	168.416830953151	1
12	563500	169.41683532668	1
12	566889	170.416837799595	1
12	570555	171.416833888032	1
12	574410	172.416829872789	1
12	578370	173.416837615373	2
12	578518	173.430035305975	2
12	582524	174.430033785961	2
12	586649	175.430044980347	2
12	590878	176.43004298952	2
12	595064	177.430042229724	2
12	599362	178.430035795517	1
12	603529	179.430042351494	1
12	607486	180.430044295668	1
12	611433	181.430046448728	1
12	647563	192.522413205083	1
12	650600	193.522402866833	0
12	653596	194.522405495876	1
12	656517	195.52240809681	1
12	659451	196.522410674474	1
13	1648	0.52241055284	1
13	4735	1.522409199424	1
13	7905	2.522408030671	1
13	11085	3.522410441967	1
13	117534	34.830381618313	1
13	120926	35.830385400005	1
13	124262	36.83038410978	1
13	127261	37.830382773374	1
13	130255	38.830393379899	1
13	133165	39.830390736123	1
13	136074	40.830388115648	1
13	139090	41.830386612333	1
13	142170	42.830390331194	1
13	145183	43.830381734573	1
13	148151	44.830384422321	1
13	252372	77.624848872974	1
13	263859	81.006124657678	0
13	267478	82.006136393466	1
13	271048	83.006126722933	1
13	274559	84.006129227387	1
13	278007	85.006131710583	1
13	281419	86.006129425292	1
13	470668	140.304257627865	1
13	473827	141.304250972657	1
13	476897	142.304257203568	1
13	479846	143.304250344714	1
13	482753	144.304256445562	1
13	485648	145.304257921723	1
13	488634	146.304259466029	1
13	491545	147.304261193116	1
13	494481	148.304250154519	1
13	497484	149.304252372342	1
13	500646	150.304254857255	1
13	591266	176.522403713376	1
13	595454	177.522410335472	1
13	599782	178.522403757176	1
13	603943	179.52241019612	1
13	607899	180.522412061648	1
13	611825	181.522401183038	1
13	615709	182.52241020829	1
13	619503	183.52240637046	1
13	623121	184.522408225966	1
13	647585	192.528325249055	1
13	650622	193.528327889543	1
13	653618	194.52833035986	1
13	656539	195.528332688196	1
13	659473	196.528321912552	1
13	662463	197.528324081036	1
13	665521	198.528326248613	1
13	668633	199.528328470371	1
14	1854	0.616909859412	0
14	4946	1.616922190182	1
14	23627	7.244317945755	2
14	27088	8.244313364147	1
14	30560	9.244312170196	1
14	30853	9.329745450281	1
14	34150	10.244317049514	2
14	34434	10.329750297359	2
14	37780	11.244316994106	2
14	38064	11.329750331184	2
14	41191	12.244316985445	2
14	41466	12.329750523698	2
14	44626	13.244314409331	2
14	88931	26.304251703315	3
14	92146	27.304250390714	1
14	95480	28.304249026228	1
14	98825	29.304260672621	1
14	102068	30.304259392225	1
14	105458	31.304251240066	1
14	266396	81.648688756582	1
14	269985	82.648685966474	1
14	273450	83.648682587959	1
14	276952	84.648688415996	1
14	280332	85.648681225935	1
14	283955	86.648687167316	1
14	287611	87.64868036433	1
14	290808	88.616917248012	1
14	290998	88.648678571346	1
14	294317	89.616918894891	2
14	294517	89.648680320334	2
14	297769	90.616910865126	2
14	297998	90.648685423833	2
14	301199	91.616915851319	2
14	304666	92.616909735404	2
14	308189	93.616920969396	2
14	311563	94.616920778399	2
14	315052	95.616917697658	2
14	322447	97.616917246751	2
14	379365	112.303607174005	2
14	383284	113.303606750878	1
14	387015	114.303600913629	2
14	390674	115.303608306108	2
14	394290	116.303608119315	2
14	394545	116.348884658381	2
14	397806	117.303610932962	2
14	398037	117.348874485245	2
14	401207	118.30360119654	2
14	401418	118.348881828673	2
14	404284	119.222795023325	3
14	404745	119.348879788336	3
14	407598	120.222792942643	3
14	408043	120.34887799902	3
14	411132	121.34887321357	3
14	413825	122.222796156214	3
14	414278	122.348872641477	3
14	417351	123.34888103199	3
14	420348	124.34887958904	3
14	423418	125.348878015648	2
14	426496	126.348876409696	2
14	429599	127.348874874093	2
14	432750	128.348873502594	1
14	435927	129.348885370984	1
14	439018	130.348884536116	1
14	442186	131.348874068989	1
14	445360	132.348876620631	1
14	448511	133.34887919351	1
14	451619	134.348881789993	1
14	454812	135.34888442259	1
14	458061	136.348881270755	1
14	461328	137.348878259839	1
14	464499	138.348881449826	1
14	467597	139.348872891869	1
14	470828	140.348880019927	1
14	473967	141.348880067843	1
14	477037	142.348874099576	1
14	617864	183.048383863996	1
14	621505	184.048382452601	1
14	625033	185.048381237406	1
14	628272	186.048383714549	1
14	631446	187.048386428571	1
14	655214	195.049922598189	1
15	1940	0.641895871115	0
15	54633	16.304260266458	0
15	58034	17.304250052751	1
15	61599	18.304252058106	1
15	65151	19.304255868284	1
15	68677	20.304255876473	1
15	250205	77.041604402715	2
15	253727	78.041599433538	1
15	257171	79.041601626711	1
15	260662	80.041594311483	1
15	264170	81.041601811825	1
15	275999	84.427196089525	1
15	279477	85.427197177854	2
15	283114	86.42719955189	2
15	286749	87.427194130183	2
15	290149	88.427197428856	2
15	293620	89.42719099737	1
15	297114	90.427197435118	1
15	327558	99.017794913905	2
15	331233	100.017797480407	1
15	334952	101.017795338982	1
15	338766	102.017793485623	1
15	342588	103.01779285687	1
15	346459	104.017799139871	1
15	350349	105.017792422146	1
15	354243	106.017796321512	1
15	358090	107.017799012606	1
15	362094	108.017788422549	1
15	366051	109.017790814797	1
15	370117	110.017793191385	1
15	374050	111.01779555442	1
15	377829	112.017797906071	1
15	381736	113.017787248564	1
15	385608	114.017789584169	1
15	389288	115.017791915193	1
15	393040	116.017794243965	1
15	396596	117.017796572827	1
15	400030	118.017798904121	1
15	403469	119.017790903999	1
15	406779	120.017789797839	1
15	409947	121.017788556797	1
15	413102	122.017787242339	1
15	416264	123.017798922359	1
15	419303	124.017797666282	1
15	422319	125.017796539571	1
15	425362	126.017796902724	1
15	428464	127.017795757805	1
15	431586	128.017794379782	1
15	432858	128.412152285184	1
15	434771	129.01779978671	1
15	436030	129.412157475226	1
15	439116	130.412150304809	2
15	441026	131.017792929167	2
15	442284	131.412150297807	2
15	444176	132.017789568697	2
15	445458	132.412157757664	2
15	447341	133.017791991563	2
15	448609	133.412160630589	2
15	451720	134.412153854201	2
15	454918	135.41216011841	2
15	458174	136.412162843885	2
15	482276	144.130386624337	3
15	485185	145.130385079328	1
15	488156	146.130383591594	1
15	491072	147.13038221907	1
15	551707	165.803625017816	2
15	586047	175.303607091856	1
15	613219	181.93724339745	2
15	617078	182.937243766851	1
15	620817	183.937238202742	2
15	621775	184.116843293732	2
15	624363	184.937239306558	2
15	625303	185.116844175986	2
15	627722	185.937240323095	2
15	628527	186.116845115995	2
15	631696	187.11685083641	2
15	655091	195.041599427075	2
15	658037	196.041602082673	1
15	660984	197.041604588957	1
15	663989	198.041594002536	1
15	667025	199.041596391383	1
16	2373	0.823755292178	1
16	2501	0.841471626276	1
16	5477	1.823744686103	2
16	8646	2.823745358851	2
16	11864	3.823743612146	2
16	15108	4.823755127513	2
16	17656	5.538881863639	2
16	18434	5.823753221086	2
16	21063	6.538883194848	3
16	21912	6.823754719926	2
16	24583	7.538884546725	2
16	25449	7.823756286379	2
16	28038	8.538889447357	2
16	31537	9.538887469452	2
16	35165	10.538885636122	2
16	38748	11.538883964524	2
16	42071	12.538885640019	2
16	45550	13.538887205102	1
16	48847	14.538888670666	1
16	52122	15.538877056154	1
16	55426	16.538878394939	1
16	58834	17.538879734119	1
16	62425	18.53888112065	1
16	65964	19.538882587659	1
16	69483	20.538884154411	1
16	86363	25.538878965904	1
16	89679	26.538881255002	1
16	92939	27.538883671134	1
16	96274	28.53888621497	1
16	102877	30.538884687706	1
16	124572	36.940928160154	2
16	127561	37.940927342311	1
16	130550	38.940925717051	1
16	133455	39.940937190039	1
16	136359	40.940935818494	1
16	139380	41.940927573009	1
16	142469	42.94093019378	1
16	259832	79.82374728958	1
16	263310	80.823747978612	1
16	266868	81.823749640051	1
16	270470	82.823753758045	1
16	273966	83.823748087149	1
16	277404	84.823753988769	1
16	280779	85.823746959152	1
16	284423	86.823753120734	1
16	288048	87.823746562459	1
16	291482	88.82374368985	1
16	454184	135.140684356768	2
16	457438	136.140689182843	1
16	460710	137.140691351611	1
16	463903	138.140693745016	1
16	466999	139.140683050209	1
16	470240	140.140685291295	1
16	473410	141.140687490338	1
16	476467	142.14068967176	1
16	479451	143.14069186107	1
16	482365	144.140694083282	1
16	485274	145.14068336148	1
16	488265	146.14068571589	1
16	491181	147.140688163546	1
16	494105	148.140690718422	1
16	524941	157.647920228447	1
16	528478	158.647925289111	1
16	531980	159.647920079789	1
16	535333	160.647927800441	1
16	538712	161.647922500295	1
16	539244	161.823750197241	1
16	541925	162.64792754274	2
16	542416	162.823754995437	2
16	545011	163.647927558775	2
16	545517	163.82375480712	2
16	548132	164.647927175356	2
16	548648	164.823754281561	2
16	551274	165.647926540064	2
16	551784	165.823753591839	2
16	554401	166.647925843797	2
16	554876	166.823752941943	2
16	557592	167.647925295814	2
16	558074	167.823752529843	2
16	561363	168.823745034971	2
16	564801	169.823743968862	2
17	2497	0.841471599147	2
17	3084	1.031463183166	2
17	5603	1.841461314453	2
17	6169	2.031471715042	2
17	9313	3.031469995792	2
17	12520	4.031468495361	2
17	15765	5.031467322478	2
17	19072	6.031468925257	2
17	22556	7.031470517114	2
17	59619	17.814436869127	2
17	60488	18.03987798908	1
17	63218	18.814446258031	1
17	64103	19.039878936341	2
17	66747	19.81443396214	2
17	67568	20.039879561257	2
17	70330	20.814434439675	2
17	71132	21.039867132422	2
17	73753	21.814435005897	2
17	74461	22.039866931274	2
17	77064	22.814434944179	2
17	77828	23.039867016635	2
17	80480	23.814435268064	2
17	81268	24.039867595672	2
17	83845	24.81443614001	2
17	171572	52.918757681028	4
17	172141	53.049352264521	2
17	174690	53.918756649639	2
17	175240	54.049350987089	2
17	177747	54.918752635537	2
17	178282	55.049346751389	2
17	180877	55.918757833888	2
17	181411	56.049351770104	2
17	184020	56.918757095115	2
17	184547	57.049350921485	2
17	187121	57.918759311796	2
17	187629	58.049353126795	2
17	190156	58.918758219517	2
17	190674	59.049352125329	2
17	193245	59.918757709202	2
17	193759	60.049351782405	2
17	196420	60.918758011238	2
17	196937	61.049352298896	2
17	199684	61.918759246965	2
17	200218	62.04935377647	2
17	203014	62.918753994317	2
17	220879	68.512407318851	3
17	227821	70.512405383079	1
17	260530	80.031471414579	3
17	262814	80.648688231485	2
17	264045	81.031472021798	2
17	267669	82.031469349248	2
17	269989	82.648685993153	2
17	271226	83.031466038464	2
17	274732	84.031471881073	2
17	278153	85.031464653449	2
17	281575	86.031470508958	2
17	285253	87.03146357716	2
17	288748	88.031469956616	1
17	539877	162.031466008585	1
17	542995	163.031470689506	1
17	546088	164.031470406708	1
17	549159	165.031469821564	1
17	552347	166.031469119117	1
17	555444	167.031468506534	1
17	558622	168.031468173136	1
17	561945	169.031473785445	1
18	2627	0.903392136681	1
18	5707	1.903391011971	1
18	8830	2.903390013146	1
18	12048	3.90339254774	1
18	48091	14.303609688515	1
18	51360	15.303609052953	1
18	54611	16.303608258698	1
18	58009	17.303601845812	1
18	61571	18.303608270059	1
18	65119	19.303601572396	1
18	68647	20.303607794757	1
18	72155	21.303600979726	1
18	75441	22.303599932851	1
18	78869	23.303606459736	1
18	82290	24.303608279838	1
18	85591	25.30360534627	1
18	88889	26.303603004096	2
18	92104	27.303604721888	2
18	92316	27.346000421291	2
18	93277	27.648685096983	3
18	95406	28.303599661305	3
18	95650	28.34600317934	3
18	96602	28.648687921537	3
18	98755	29.30360283342	3
18	98990	29.345993177223	3
18	99864	29.64867807138	3
18	101992	30.303606339897	3
18	102266	30.346004898135	3
18	103186	30.64867702818	3
18	105386	31.303608316902	3
18	105661	31.345993666898	3
18	106568	31.64868829157	3
18	108896	32.303611548458	3
18	109157	32.345996783521	3
18	112338	33.30360964058	3
18	112567	33.345994861752	3
18	115834	34.303601827415	3
18	116091	34.346000666083	3
18	119148	35.303605883714	3
18	122521	36.303606958366	3
18	354451	106.039878185865	3
18	358284	107.039875090992	1
18	362293	108.039875311262	1
18	366252	109.039870410966	1
18	373082	110.648685865902	2
18	376863	111.648687595421	2
18	380757	112.648687449804	2
18	384583	113.648687145499	2
18	388312	114.64868556297	2
18	392009	115.648680733866	2
18	395572	116.648679006904	1
18	398998	117.648683782898	1
18	483594	144.610948124784	1
18	486487	145.610950649567	1
18	489455	146.610952981484	1
18	492352	147.610955121072	1
18	495299	148.610949851584	1
18	498359	149.610948091418	1
18	501515	150.610946008758	1
18	504620	151.610956628918	1
18	507879	152.610953999429	1
18	511146	153.610951248102	1
18	514395	154.610948554778	1
18	517731	155.610946009382	1
18	521157	156.610956655785	1
18	524805	157.610954527436	1
18	528337	158.610952653479	1
18	531843	159.610951059644	1
18	535201	160.61094976835	1
18	538580	161.610946561155	1
18	617151	182.942861116263	1
18	620885	183.942859775174	0
18	624436	184.942858561508	1
18	627793	185.942860970979	1
18	631002	186.942863564232	1
18	647038	192.348874031159	2
18	650070	193.34887669446	1
18	658648	196.229820891258	1
18	661659	197.229828947872	2
18	664711	198.229824021486	2
18	667756	199.229826265438	2
19	2730	0.92697449097	1
19	5810	1.926976850988	1
19	7865	2.518246743853	2
19	8960	2.926969061445	2
19	11047	3.518246940823	2
19	12183	3.926969325739	2
19	14268	4.518253237309	2
19	15397	4.926975774863	2
19	17571	5.518255490465	2
19	85156	25.143671577424	2
19	88458	26.143683840254	1
19	91705	27.143682622744	1
19	95032	28.143681051541	1
19	98369	29.143679213312	1
19	101594	30.143677271687	1
19	104991	31.143675420618	1
19	108470	32.143673792633	1
19	111917	33.143672451273	1
19	125587	37.236525955533	1
19	145859	44.049349928107	1
19	148814	45.049345731222	0
19	151834	46.049348491093	0
19	154845	47.04934758244	1
19	157851	48.049346716261	1
19	160700	49.049345659305	1
19	178290	55.0493470808	1
19	181419	56.049352209567	1
19	197113	61.11585791896	2
19	200398	62.115859439497	1
19	203727	63.115858966264	1
19	206900	64.115856489534	1
19	208549	64.616916409419	2
19	210064	65.115859222292	2
19	211658	65.616910938256	2
19	213232	66.115847537499	2
19	214851	66.616922291554	2
19	216456	67.115858974775	2
19	218055	67.616920931125	2
19	219659	68.115849243238	2
19	248469	76.518198352071	3
19	255435	78.518204590507	1
19	276784	84.624838122444	1
19	280169	85.624842089447	1
19	283792	86.624840523256	1
19	287448	87.624845347462	1
19	290849	88.624843038904	1
19	294361	89.624840730482	1
19	297813	90.624838652943	1
19	301244	91.62484054376	1
19	304711	92.624837693087	1
19	377161	111.726182690687	1
19	381067	112.726178317258	0
19	384888	113.726180764286	1
19	388573	114.726183131234	1
19	392257	115.726185534484	1
19	395789	116.726175082347	1
19	587870	175.735656639772	1
19	592210	176.735653811576	1
19	596346	177.735657700837	1
19	600636	178.735650343395	1
19	604776	179.735656556455	1
19	608703	180.73565180791	1
19	612609	181.735660274353	1
19	616461	182.735659414244	1
20	2815	0.942857254709	1
20	109510	32.43004592552	1
20	112926	33.430046309257	1
20	116455	34.43004168101	1
20	119711	35.430045496488	1
20	123100	36.430036322582	1
20	175405	54.115848965575	1
20	178472	55.115853343139	1
20	181596	56.115858465693	1
20	184716	57.115854463291	2
20	185457	57.327803162835	2
20	187799	58.115856579456	2
20	188499	58.327792119223	2
20	190844	59.115855476572	2
20	191519	59.32779089554	2
20	193924	60.115855036534	2
20	194653	60.327791352636	2
20	197109	61.115857790094	2
20	197876	61.327792037957	2
20	200402	62.115859468691	2
20	201200	62.327793393218	2
20	203735	63.115859150637	2
20	204503	63.327792873728	2
20	206908	64.115856812927	2
20	207490	64.30239911747	2
20	207683	64.327798637582	2
20	210071	65.115859656206	4
20	210646	65.302406537449	4
20	210809	65.327793365841	4
20	213039	66.049354865662	4
20	213777	66.302399296712	4
20	216242	67.049353320828	4
20	217016	67.302397773427	4
20	219444	68.049356551498	4
20	222263	68.918749806024	6
20	222900	69.049356895386	6
20	225710	69.918760185912	6
20	226336	70.049354228082	4
20	229147	70.918757772666	4
20	229787	71.049351845009	4
20	233253	72.049348444539	4
20	236567	73.04934546928	4
20	239973	74.049348915231	4
20	243396	75.049345176662	2
20	291886	88.942857450171	3
20	295389	89.942859116031	1
20	298822	90.942864153654	1
20	302198	91.942862253386	1
20	305688	92.942856295575	1
20	308387	93.648676719158	2
20	309231	93.94285607431	2
20	311759	94.64868651344	2
20	312643	94.942852938612	2
20	315248	95.648684373769	2
20	316143	95.942863916673	2
20	318874	96.648679624659	2
20	322647	97.648680961553	2
20	323547	97.942860844074	2
20	326319	98.648676524728	2
20	330017	99.648678415059	2
20	467881	139.430036914329	3
21	2857	0.946320482034	1
21	5936	1.946320490958	1
21	9094	2.946320487564	1
21	120582	35.726184367146	1
21	123945	36.726183241863	1
21	126941	37.726181878558	1
21	129933	38.726180358992	1
21	132838	39.726178813892	1
21	135727	40.726177387939	1
21	138733	41.726182468953	1
21	141804	42.726185131165	1
21	178476	55.115853418592	2
21	181600	56.115858499764	1
21	183159	56.616916749638	1
21	184712	57.115854453816	1
21	187795	58.115856527139	2
21	189303	58.616922078873	2
21	190840	59.115855388309	2
21	192363	59.616920783349	2
21	193920	60.115854927097	2
21	195512	60.616921247207	2
21	197105	61.11585767803	2
21	198734	61.616911412517	2
21	200394	62.11585936929	2
21	202079	62.616911513294	2
21	203731	63.115859073052	2
21	205373	63.616910814702	2
21	206904	64.115856761524	2
21	208553	64.616916453018	2
21	220960	68.518198259079	3
21	224459	69.518204465532	3
21	227898	70.518201732938	2
21	231438	71.5181947113	1
21	234804	72.518198533583	1
21	238201	73.518195483069	1
21	241587	74.518206738258	1
21	245023	75.518205070774	1
21	248465	76.518198138016	1
21	251967	77.518199682088	1
21	255431	78.51820457657	1
21	282289	86.140690322056	2
21	291291	88.735657594912	1
21	294811	89.735652564606	1
21	298258	90.735657323165	2
21	301639	91.735654407485	2
21	305140	92.7356565673	1
21	308655	93.735653456786	1
21	312053	94.735663046867	1
21	315543	95.735656016149	1
21	319214	96.73566189907	1
21	322976	97.735654848867	1
21	433588	128.647921394111	2
21	436765	129.647920190773	1
21	439837	130.647918927429	1
21	443006	131.647930639284	1
21	446189	132.647929363119	1
21	449357	133.647928134393	1
21	452490	134.647926984822	1
21	455712	135.647925941122	1
21	522682	157.03858502924	1
21	526196	158.038593783979	0
21	529771	159.038596416188	1
21	533210	160.038590520922	1
21	536568	161.038584958579	1
21	539912	162.0385928295	1
21	543032	163.038588207949	1
21	546129	164.038594226211	1
21	549198	165.038596692804	1
21	552115	165.940935307931	1
21	552386	166.038593527307	1
21	555206	166.940928158842	2
21	555483	167.038586529867	2
21	555684	167.046844163612	2
21	558402	167.940927754776	3
21	558661	168.038586296224	3
21	558864	168.04684371613	3
21	561692	168.940935030294	3
21	561983	169.038593755385	3
21	562195	169.046837971342	3
21	565102	169.940933435921	3
21	565550	170.046840472447	3
21	568611	170.940930613186	3
21	569071	171.046837486123	3
21	572379	171.940927245511	3
21	572931	172.046843647242	3
21	576290	172.940934767187	3
21	576853	173.046838093099	3
21	580295	173.940936283575	3
21	580875	174.046842511466	3
21	584285	174.940926461521	3
21	584380	174.9463241313	2
21	584917	175.046845497803	3
21	588465	175.94093687535	3
21	588565	175.946321249355	3
21	589134	176.046842761715	3
21	592796	176.940934112925	3
21	592893	176.946331211253	3
21	593425	177.046837803684	3
21	596953	177.940927492789	3
21	597055	177.94632435504	3
21	597616	178.046844210708	3
21	601332	178.946330282148	3
21	601929	179.046844935989	3
21	605469	179.946324670662	3
21	609401	180.946323952338	3
21	613363	181.946323397099	3
21	617236	182.946328991513	3
21	626642	185.540216039912	4
21	629874	186.540208377811	2
21	633025	187.540214744082	2
21	635959	188.540211330245	2
22	2861	0.946320819463	1
22	5940	1.94632065613	1
22	9090	2.946320479332	1
22	12314	3.946333370791	1
22	15533	4.946331862612	1
22	18848	5.946330436171	1
22	22323	6.94632915416	1
22	25877	7.946328071753	1
22	58473	17.428565273994	1
22	62044	18.428570333216	1
22	65612	19.428562267389	1
22	69111	20.428570481194	1
22	72573	21.428574018841	1
22	75879	22.428564670498	1
22	79302	23.428568605674	1
22	221077	68.528321247469	2
22	224588	69.528330304345	1
22	228046	70.52832212217	1
22	633318	187.648688614438	1
22	636252	188.648687961988	1
22	639173	189.648687283416	1
23	3460	1.123614110835	0
23	6590	2.123616224492	1
23	9739	3.12361361762	1
23	12951	4.123620027249	1
23	16224	5.123613223919	1
23	19566	6.123613433369	1
23	23036	7.123621379544	1
23	31941	9.648683595254	2
23	35545	10.648676768708	2
23	39130	11.648687286851	2
23	42523	12.648682372686	2
23	45950	13.648684389609	1
23	49255	14.648686331603	1
23	52485	15.648686767455	1
23	55844	16.648686027429	1
23	59214	17.648681689684	1
23	62791	18.648683282697	1
23	66324	19.648683430002	1
23	69844	20.648676506532	1
23	73268	21.648677486993	1
23	75608	22.345995998131	1
23	76580	22.648684268289	1
23	80013	23.648682598057	1
23	82464	24.346004203115	1
23	83397	24.648679725599	1
23	86700	25.648681304158	1
23	149318	45.21642091913	2
23	152329	46.216419900628	1
23	155342	47.216431993174	1
23	256688	78.926975275268	2
23	260155	79.926970312472	1
23	263622	80.926973355713	1
23	267202	81.926971481974	1
23	270783	82.926969493142	1
23	274275	83.92697703098	1
23	277713	84.926978787454	1
23	281093	85.926976092583	1
23	284762	86.926973547177	1
23	306142	93.043375706797	1
23	309658	94.043378504872	1
23	313101	95.043381056291	1
23	316625	96.04338343813	1
23	320326	97.043372756217	1
23	324085	98.043375130278	1
23	327810	99.043377667733	1
23	385687	114.038592949003	1
23	389367	115.038595432892	0
23	406868	120.038588532925	1
23	410036	121.038590745946	1
23	413191	122.038593107901	1
23	531294	159.428730086698	1
23	534670	160.428718787618	1
23	535764	160.80361930639	1
23	538029	161.428727076715	1
23	541308	162.428720576695	1
23	544401	163.428727042676	1
23	547522	164.428728830965	1
23	550620	165.428717913486	1
23	553801	166.428720391932	1
23	563896	169.528322717792	2
23	567286	170.528321802249	2
23	570969	171.528324235094	2
23	574849	172.528326542217	2
23	578881	173.528328735739	1
23	582872	174.528327455506	1
23	587029	175.528325993703	1
23	591309	176.528321011445	1
23	595497	177.528328813572	1
23	599830	178.528323520439	1
23	604000	179.528331258113	1
23	607956	180.528326151337	1
23	611882	181.528324565399	1
23	615766	182.528323188696	1
23	619560	183.528322083838	1
23	623175	184.52832459481	1
23	632395	187.346005850401	2
23	635353	188.34600439941	2
23	638268	189.346002935296	2
23	641207	190.346001537128	1
23	644123	191.346000299104	1
23	647018	192.345999314804	1
23	650050	193.345998559643	1
23	653062	194.346003849599	1
23	668205	199.416834253389	1
24	3588	1.142725959887	1
24	6719	2.142727908036	1
24	9860	3.142725165102	1
24	13068	4.142731494583	1
24	16359	5.142724696387	2
24	17277	5.427193487065	2
24	19739	6.142733507301	2
24	20664	6.427188979388	2
24	23219	7.142728290905	2
24	24184	7.427196511837	2
24	27677	8.42718973692	2
24	31165	9.427195931728	2
24	34783	10.42718931657	2
24	38405	11.42718709212	2
24	100540	29.903389395224	2
24	103854	30.90338503637	0
24	107245	31.903396456614	1
24	110745	32.903385826577	1
24	114275	33.903388075181	1
24	117674	34.903390216038	1
24	121069	35.903395991941	1
24	124402	36.90339456054	1
24	127393	37.90339306976	1
24	130382	38.903391569868	1
24	133297	39.903383972914	1
24	136206	40.90339478607	1
24	139222	41.903389982631	1
24	142302	42.903391337175	1
24	145320	43.903390146276	1
24	148280	44.903389140363	1
24	151318	45.903391702203	1
24	484474	144.937244014252	1
24	487390	145.937235764482	0
24	490293	146.937234378801	1
24	490820	147.049920475957	1
24	493771	148.049919583316	2
24	496756	149.049918480095	2
24	499908	150.049917244053	2
24	549994	165.22314158971	3
24	553152	166.22314205043	1
24	556288	167.223142457196	1
24	559495	168.223142996804	1
24	562884	169.223143832412	1
24	566265	170.223150269461	2
24	569850	171.223143867909	2
24	572084	171.830389515015	2
24	575998	172.830392094321	2
24	579999	173.830381601959	2
24	583972	174.830384037988	2
24	588160	175.830386402477	2
24	592508	176.830385098149	2
24	596671	177.830382694225	1
24	596996	177.944811356566	1
24	600956	178.830388774987	2
24	601306	178.944812049414	2
24	605093	179.83038359054	2
24	605443	179.944819252727	2
24	609020	180.830390210151	2
24	609375	180.944812375217	2
24	612959	181.830382868006	2
24	613337	181.944817804218	2
24	616808	182.830388007848	2
24	617197	182.944823131797	2
24	620547	183.830393254402	2
24	620932	183.944815872913	2
24	624064	184.83038611026	2
24	624478	184.944822370731	2
24	627443	185.830392875106	2
24	630664	186.83038265089	2
24	633773	187.830385908772	2
24	636701	188.830381769631	2
24	639638	189.830381193417	2
24	642504	190.830393121566	2
24	645413	191.83038139817	1
24	648405	192.830382630117	1
24	651458	193.830389919574	1
24	654468	194.830381882346	1
24	657439	195.830386434677	1
24	660353	196.830383467057	1
24	661550	197.210697284638	1
24	663350	197.830389660847	1
24	664601	198.210694447642	2
24	666393	198.830386859261	2
24	667644	199.210695028277	2
24	669519	199.830387482799	2
25	3607	1.143680609581	0
25	9879	3.143678993142	1
25	13087	4.143681624501	1
25	16375	5.143684230789	1
25	19758	6.143673824148	1
25	40860	12.143680560912	1
25	77868	23.041600177764	3
25	78203	23.116846640627	2
25	81308	24.041600089115	2
25	81633	24.11684625628	2
25	84658	25.041599496368	2
25	84962	25.116845376853	2
25	87942	26.041598460151	2
25	88287	26.116844075712	2
25	91524	27.116848310117	2
25	94851	28.116839418555	2
25	98168	29.116843630692	2
25	101418	30.116843766767	2
25	104779	31.116851045113	2
25	108238	32.11683955233	1
25	111697	33.11684829217	1
25	175110	54.035036069417	1
25	178151	55.03503867128	1
25	181275	56.035041205741	1
25	184399	57.035043679525	1
25	187477	58.035046100219	1
25	190512	59.035035476288	1
25	193597	60.035037817043	1
25	196775	61.035040132543	1
25	200044	62.035042433435	1
25	203396	63.035044730725	1
25	206587	64.035047035511	1
25	209746	65.0350363587	1
25	212875	66.035038710756	1
25	216079	67.035041101491	1
25	219284	68.035043539926	1
25	222710	69.035042571153	1
25	230339	71.21069766359	1
25	233717	72.210696344676	2
25	237087	73.210694841028	2
25	240494	74.210693271496	2
25	243938	75.210691789589	1
25	247345	76.210693738862	1
25	250857	77.210695865242	1
25	254371	78.210698476212	1
25	260455	80.022936923598	1
25	263969	81.022948439879	2
25	267593	82.022947083345	2
25	271155	83.022937355855	2
25	274664	84.022939848521	1
25	278081	85.022942367535	1
25	281521	86.02293557888	2
25	284817	86.937243383426	2
25	285200	87.022940731283	2
25	288369	87.937241375452	2
25	291808	88.937242490235	2
25	295313	89.937243445238	2
25	298749	90.937235327223	2
25	302119	91.937246428474	2
25	304965	92.703405887038	1
25	305608	92.937239327838	1
25	308501	93.703405897758	2
25	309152	93.937239574514	2
25	311880	94.703398016364	2
25	315370	95.703396283139	2
25	318993	96.70340317795	2
25	319669	96.913551039552	2
25	322766	97.703400132096	3
25	326438	98.703398010276	3
25	327152	98.913545810305	2
25	330137	99.703402824795	2
25	333840	100.703400633305	2
25	337631	101.703394139113	2
25	341507	102.703400637496	2
25	345403	103.703393747287	1
25	349316	104.703399781768	1
25	352793	105.607342209835	1
25	353238	105.703401490841	1
25	356694	106.60734587931	2
25	357134	106.703405271221	2
25	360775	107.607342532853	2
25	361197	107.703402045572	2
25	364794	108.607350654029	2
25	365212	108.703397295277	2
25	368883	109.607338089897	2
25	372828	110.607349296915	2
25	484852	145.040666763775	4
25	487765	146.040668283489	1
25	490670	147.040657102155	1
25	493621	148.040659236033	1
25	496605	149.040656457578	1
25	499749	150.040656466124	1
25	502896	151.040656029367	2
25	504183	151.429185296678	2
25	505275	151.81049111203	2
25	506109	152.040662562218	3
25	507433	152.429178246829	3
25	508499	152.8104970689	3
25	509372	153.040668879268	3
25	510673	153.42918403821	3
25	512599	154.040659753209	3
25	513942	154.429187489198	3
25	517262	155.429177928768	3
25	520672	156.429176529085	3
25	524284	157.429175200971	3
25	527804	158.429183368019	3
25	647170	192.414033747627	3
25	650202	193.414022941473	1
25	653213	194.414024813705	1
25	656124	195.414026388582	1
25	659074	196.414027756442	1
25	662067	197.414029168952	1
25	665110	198.414030830265	1
25	668176	199.414032799518	1
26	3813	1.22982366501	0
26	6934	2.229826192593	1
26	10101	3.229828559066	1
26	13327	4.229817814665	1
26	16601	5.229820023345	1
26	19990	6.229822256257	1
26	23466	7.229824580721	1
26	26915	8.229827051689	1
26	30181	9.142734880064	1
26	33742	10.142728115978	2
26	37393	11.142725692199	2
26	40841	12.142733830318	2
26	44256	13.142722891905	2
26	47644	14.142724868729	1
26	50920	15.142725327238	1
26	54182	16.142724595775	1
26	57571	17.142723733991	1
26	61085	18.142730283324	1
26	64646	19.14272369919	1
26	65305	19.346002938165	1
26	68180	20.142730020876	2
26	68823	20.345995971349	2
26	71708	21.142723287949	2
26	72318	21.345996900533	2
26	74994	22.142722302862	2
26	75604	22.34599560572	2
26	78413	23.142728868544	2
26	79042	23.346001892402	2
26	81845	24.142730702812	2
26	82460	24.346003495923	2
26	85135	25.14272775862	2
26	85785	25.346000465142	2
26	88435	26.142725382348	2
26	89114	26.345998174082	3
26	92308	27.345999979407	3
26	94602	28.048392362485	3
26	95642	28.346002950345	3
26	97909	29.048382306635	3
26	98982	29.345993151886	3
26	101163	30.048385590546	3
26	102270	30.346005064034	3
26	104513	31.048383045911	3
26	107900	32.043383132813	3
26	111377	33.043373032359	3
26	114906	34.043383921845	3
26	118304	35.043376568881	3
26	121711	36.043382757085	3
26	124992	37.043383412033	2
26	127964	38.043371930218	2
26	130943	39.04337363599	1
26	133838	40.043375591711	1
26	136738	41.043377822205	1
26	153341	46.540207342777	1
26	156363	47.540209866895	2
26	159276	48.5402121469	1
26	162133	49.540214206334	1
26	164902	50.540216086732	1
26	167728	51.540204858298	1
26	170600	52.540206619722	1
26	173709	53.540208472921	1
26	176783	54.540210494254	1
26	179894	55.540212729948	1
26	183007	56.540215206208	1
26	259836	79.823747343235	1
26	263314	80.82374810508	1
26	266872	81.823749864182	2
26	267293	81.942858571666	2
26	270883	82.942855376651	2
26	274372	83.942861294486	2
26	277812	84.94285407334	2
26	281192	85.942859853846	2
26	284886	86.942852788361	2
26	288438	87.942859001804	2
26	291882	88.942857246847	2
26	302202	91.942862451286	1
26	308193	93.616921010086	2
26	311559	94.61692069971	2
26	315048	95.616917505264	2
26	318689	96.616915464792	2
26	322443	97.616916896839	1
26	326129	98.616912482217	1
26	329827	99.616914343483	1
26	333527	100.616916566509	1
26	337413	101.645127090976	1
26	341282	102.645124178399	2
26	345194	103.645121091046	2
26	349121	104.645125815817	2
26	353001	105.645119974618	2
26	356884	106.645129930308	1
26	360943	107.645130119526	1
26	364955	108.645125095294	1
26	369042	109.645119386123	1
26	370640	110.04838547235	1
26	372984	110.645120692148	1
26	374476	111.048384474155	2
26	376797	111.645130879966	2
26	378248	112.04838641719	2
26	380665	112.645122462742	2
26	382155	113.048386576928	2
26	384495	113.645122417288	2
26	385983	114.048390477873	2
26	389655	115.048385188665	2
26	393391	116.048393415515	2
26	396923	117.048391773158	2
26	400363	118.048393184565	3
26	404428	119.244307208604	3
26	407742	120.244305171759	3
26	410844	121.244307254129	2
26	414000	122.244309243227	2
26	417067	123.244313270309	2
26	420071	124.24431155999	1
26	423126	125.244309637316	1
26	426187	126.244307590698	1
26	428169	126.926554005748	2
26	429291	127.244315280634	2
26	431226	127.926553461343	2
26	432422	128.244309695087	2
26	434385	128.926542602417	2
26	435603	129.244312205438	2
26	437542	129.926549883299	2
26	440637	130.92654767172	2
26	443786	131.926545589203	2
26	446970	132.926543702551	2
26	450113	133.926542078788	2
26	453286	134.926553774409	2
26	456543	135.92655153531	1
26	459793	136.926550455593	1
26	463028	137.926549439785	1
26	483014	144.414516378474	1
26	485910	145.414514611523	0
26	488896	146.414504043772	1
26	491817	147.414506492663	1
26	494771	148.414515962645	1
26	497795	149.414516066976	2
26	499360	149.944817794809	2
26	500941	150.414505272716	2
26	502532	150.944819753086	2
26	504046	151.414507194723	2
26	505705	151.944821526286	2
26	507296	152.414508974051	2
26	508944	152.944816255205	2
26	510539	153.414503749912	2
26	512186	153.944811076401	2
26	513803	154.414511653914	2
26	515546	154.944821687105	2
26	517126	155.414509377883	2
26	518847	155.944819512913	2
26	520525	156.414507343394	2
26	522320	156.944815675824	2
26	635522	188.423799109756	2
26	638447	189.423798421433	1
26	653082	194.348885051346	2
26	656011	195.348879881485	2
26	658966	196.348877649896	1
26	661957	197.348872776356	1
26	665003	198.348884547852	1
26	668069	199.348873664268	1
27	5098	1.648685455205	1
27	8283	2.64868789601	1
27	11465	3.648677198667	1
27	14694	4.648679420709	1
27	18006	5.648681631124	1
27	21448	6.648683900779	1
27	24994	7.648686291586	1
27	28420	8.64868885116	1
27	230520	71.236517875025	1
27	233904	72.236522424661	1
27	237276	73.236526786388	1
27	240682	74.236521609224	1
27	244148	75.23652734575	1
27	247532	76.23652778768	1
27	251026	77.236527897067	1
27	254540	78.236527754143	1
27	257951	79.236527475594	1
27	258933	79.528329365118	2
27	261401	80.236516738165	2
27	262386	80.528331620367	2
27	264906	81.236519120094	2
27	265946	81.528321096656	2
27	268509	82.236521822486	2
27	269519	82.528323976137	2
27	272026	83.236525010079	2
27	272974	83.528327405733	2
27	276476	84.528321675678	2
27	440390	130.830388814153	2
27	441123	131.03858657519	0
27	443597	131.830389733987	1
27	446781	132.830383681022	1
27	449926	133.830381718268	1
27	453084	134.830392803396	1
27	456336	135.830391058617	1
27	459586	136.830389594449	1
27	462823	137.830388944791	1
27	465942	138.830390857137	1
27	661051	197.048386200765	1
27	664076	198.048381340853	0
27	667115	199.048383649214	1
28	6074	2.006128469161	1
28	9223	3.006124160583	1
28	12446	4.006126809887	1
28	15690	5.006129428301	1
28	19004	6.0061320277	1
28	22479	7.006134620383	1
28	40205	12.006125674722	1
28	43570	13.006128475506	1
28	85566	25.302403484466	2
28	88864	26.302402568709	1
28	92079	27.302401185815	1
28	95384	28.30239947808	1
28	98731	29.302397567297	1
28	101959	30.3024086553	1
28	105355	31.302406918107	1
28	108858	32.302405445561	1
28	119904	35.512407874136	1
28	123275	36.512406609224	1
28	126317	37.512408825224	2
28	129308	38.51241346894	2
28	132234	39.512405113638	1
28	144991	43.803628024658	2
28	147968	44.803621880483	2
28	151028	45.803624401722	1
28	154042	46.803626641698	1
28	157049	47.803629621123	1
28	159910	48.803625328424	1
28	162737	49.803617512762	1
28	165501	50.803620252349	1
28	174339	53.803627437265	1
28	340794	102.522407033039	1
28	344717	103.522412212581	0
28	348636	104.522411332223	1
28	352501	105.522403467764	1
29	6465	2.114542121121	1
29	9633	3.114541176982	1
29	12845	4.114539117361	1
29	16108	5.114545320237	1
29	19442	6.114537788936	1
29	22914	7.114536183957	1
29	26420	8.114547598224	1
29	29885	9.114546141597	1
29	33446	10.114544894106	1
29	42426	12.641895706891	1
29	44445	13.223145049694	1
29	45853	13.641894877389	3
29	47829	14.223138991833	3
29	49164	14.641892800305	3
29	51108	15.223148088095	3
29	52394	15.641901917127	2
29	54369	16.22314389375	2
29	55713	16.641892033977	2
29	57783	17.223142038451	2
29	59091	17.641903330696	2
29	61316	18.223140211328	2
29	62665	18.641901746916	2
29	64869	19.223138746033	2
29	66199	19.641903677227	2
29	68402	20.223140995536	2
29	69723	20.641893058582	2
29	73144	21.641893248531	2
29	76455	22.641893911694	2
29	79888	23.641895119213	2
29	158301	48.210687471189	3
29	161148	49.21068981792	1
29	163957	50.210691967375	1
29	166753	51.210693983215	1
29	169587	52.210695955691	1
29	172635	53.210697986501	1
29	175705	54.210687162312	1
29	178797	55.210689542754	1
29	281696	86.041600109034	1
29	282012	86.114539951735	1
29	285374	87.041599151523	3
29	285697	87.114538793009	3
29	286753	87.427194532588	3
29	288854	88.041602817354	3
29	289161	88.114542298882	3
29	290153	88.427197720602	3
29	292295	89.041599712013	3
29	292605	89.114539089294	3
29	293624	89.42719112817	3
29	295760	90.041593165021	3
29	296089	90.114545506808	3
29	297110	90.427197387446	3
29	299200	91.041599600511	3
29	299533	91.11453898087	3
29	300536	91.427190840626	3
29	302617	92.041599167556	3
29	302978	92.114538654802	3
29	304024	92.427190625782	3
29	306103	93.041599118471	3
29	306479	93.114538767694	3
29	307495	93.427189076155	3
29	310865	94.42719804667	3
29	359077	107.131584397928	3
29	363097	108.131586984555	1
29	367056	109.131589262198	1
29	371101	110.131591238844	1
29	374900	111.131592932956	1
29	378663	112.131594397964	1
29	382573	113.131582794396	1
29	386391	114.131584346269	1
29	390057	115.131586157722	1
29	393725	116.131588261729	1
29	397252	117.131590670876	1
30	6469	2.11454224625	1
30	23443	7.223141968778	1
30	26892	8.223137436815	1
30	28326	8.641897014056	1
30	30400	9.223142254694	1
30	31867	9.641896884912	2
30	33972	10.223142023771	2
30	35471	10.641896516718	2
30	37600	11.223141659995	2
30	39066	11.641896107196	2
30	41044	12.223141091559	2
30	42422	12.641895578189	2
30	44441	13.223144798028	2
30	45857	13.641894933086	2
30	89254	26.4121523384	3
30	92499	27.41215501726	1
30	95833	28.412157364928	1
30	99180	29.412159390003	1
30	102505	30.412161112704	1
30	105864	31.412162593126	1
30	109360	32.41215101285	1
30	112766	33.412152611358	1
30	116295	34.412154492973	1
30	119556	35.412156690155	1
30	122923	36.412159215336	1
30	148396	44.937235973469	1
30	151426	45.937235083022	1
30	154421	46.937240832665	1
30	157416	47.937240260053	1
30	160269	48.93723942842	1
30	163092	49.937238434928	1
30	165876	50.937237397041	1
30	168697	51.937236417797	1
30	171712	52.937235567644	1
30	172921	53.304261393321	1
30	174834	53.937238217149	2
30	175981	54.304256975082	2
30	179110	55.30425193121	2
30	182206	56.304253250992	2
30	185337	57.304260977855	2
30	188389	58.304259600357	2
30	191434	59.304258393981	2
30	194505	60.304260821755	2
30	197736	61.304252362559	1
30	201060	62.304260068295	1
30	204363	63.304254726099	1
30	207528	64.304249545085	1
30	360002	107.412159734055	2
30	364028	108.412162238367	1
30	366906	109.116841963838	1
30	368058	109.412162605284	2
30	370955	110.116841834561	2
30	372069	110.412162398206	2
30	374754	111.116841306171	2
30	375879	111.412161955417	2
30	378517	112.11684076219	2
30	379735	112.412161642409	2
30	382428	113.116840538711	2
30	386234	114.116850895886	2
30	389885	115.116849003915	2
30	393579	116.116844598881	2
30	397111	117.11685114931	2
30	400556	118.116845227808	2
30	403909	119.116848678704	1
30	480653	143.607342856024	2
30	480780	143.638818924442	1
30	483569	144.60735088478	1
30	486462	145.607349028519	1
30	489433	146.6073468731	1
30	492330	147.607344541687	1
30	495278	148.607342275156	1
30	498338	149.60734027129	1
30	501494	150.607338611145	1
30	504599	151.607350325473	1
31	7152	2.302405805698	0
31	10319	3.302397952166	1
31	113858	33.73566288989	2
31	117302	34.735657974822	1
31	120664	35.735653093821	1
31	124027	36.735661287225	1
31	127017	37.735654477205	1
31	130015	38.735660455788	1
31	132895	39.735653361559	1
31	135804	40.735659347921	1
31	138815	41.735662154619	1
31	141887	42.735652043206	1
31	144851	43.735660252206	1
31	147829	44.735655508809	1
31	150878	45.73565084527	1
31	248969	76.647927275675	2
31	252473	77.647925960873	1
31	255914	78.647927379718	1
31	259341	79.647922560989	1
31	262786	80.647930607747	1
31	277860	84.946325797252	1
31	281251	85.946322977516	2
31	284945	86.946333344571	2
31	288491	87.94632298681	1
31	291936	88.946321243478	1
31	295420	89.946332452116	1
31	298856	90.946330661801	1
31	302231	91.94632385087	1
31	305720	92.946331620203	1
31	309263	93.946326230491	1
31	312679	94.946320744891	1
31	314332	95.428571290819	1
31	316182	95.946330753139	2
31	317910	96.428568087827	2
31	319872	96.946333239754	2
31	321639	97.428570437394	2
31	323587	97.946331583802	2
31	325326	98.428563313221	2
31	326971	98.841471572812	2
31	327337	98.94632690087	2
31	329050	99.428571510066	2
31	330655	99.841466568022	3
31	332743	100.428571449333	3
31	334353	100.841471167279	3
31	338159	101.841468658852	3
31	342003	102.841470828185	3
31	345901	103.841464885178	2
31	349806	104.841472165838	2
31	353676	105.841461076193	2
31	365605	108.841462636786	2
31	369694	109.841464429489	1
31	373657	110.841466252113	1
31	377427	111.841468126425	1
31	381339	112.841470070629	1
31	385175	113.841472099231	1
31	388865	114.841461223475	1
31	392561	115.841473201949	1
31	396085	116.841461705557	1
31	399537	117.841464152778	1
31	402901	118.841466732136	1
31	406234	119.841469524962	1
31	476036	142.039872910319	0
31	479028	143.039879757587	0
31	481918	144.039869262184	1
31	484831	145.039871266824	1
31	487744	146.039873262838	1
31	490650	147.039875228532	1
31	493601	148.039877307586	1
31	496583	149.039879585739	1
31	499725	150.039869115839	1
31	654170	194.715811137891	2
31	657106	195.715809352992	1
31	660026	196.715807183037	1
31	663036	197.715804702273	1
31	663939	198.03858432778	1
31	666082	198.715805226556	2
31	666975	199.038584842765	2
31	669189	199.715816576753	2
32	8182	2.64189704615	0
32	11364	3.641896015028	1
32	14593	4.641904847289	1
32	17910	5.641897088899	1
32	21352	6.641899003179	1
32	24876	7.64189468329	1
32	61603	18.304252119257	1
32	65147	19.304255801304	1
32	68673	20.304255670114	1
32	72181	21.304255284061	1
32	75467	22.304253702258	1
32	78897	23.304252199662	1
32	82315	24.304259870204	1
32	85635	25.304254618008	1
32	88935	26.304251826347	1
32	107249	31.90339661798	2
32	110749	32.903386008286	1
32	114279	33.903388307221	1
32	200149	62.043295805665	2
32	241307	74.428728711596	1
32	244742	75.428718187782	1
32	248160	76.428720362647	1
32	251661	77.428722275337	1
32	255109	78.428717710232	1
32	258509	79.428720052996	1
32	261955	80.428728526134	1
32	265480	81.428717889602	1
32	269113	82.42872617735	1
32	297817	90.624839212241	2
32	316348	96.006125464459	1
32	320018	97.006135509723	0
32	337234	101.607347432645	0
32	341094	102.607340814271	1
32	345011	103.607343628339	1
32	348938	104.607349392205	1
32	352789	105.607342170414	1
32	385060	113.810491073383	1
32	388750	114.810493800226	2
32	392434	115.81049643091	1
32	395958	116.810499037553	1
32	399411	117.810501695308	1
32	402770	118.810491473054	1
32	624893	185.040663579667	1
32	628156	186.040662495923	1
32	631333	187.04066113056	1
32	634384	188.040659615054	1
32	637308	189.040658126541	1
32	640243	190.040662071949	1
32	643109	191.040659577937	1
32	647389	192.438353065077	2
32	650426	193.438355388331	2
32	653406	194.438344441962	2
32	656328	195.438346288602	2
32	659262	196.43834804329	2
32	662253	197.438349859397	1
32	665291	198.438351863391	1
32	668397	199.438354127279	1
33	8878	2.913556244134	1
33	12096	3.913555133297	1
33	15318	4.913550922767	1
33	18638	5.913556163842	1
33	25640	7.913557530374	1
33	27294	8.306495238222	2
33	30749	9.306486988304	2
33	34335	10.306486718628	2
33	37960	11.306486350053	2
33	41367	12.306485811452	2
33	44802	13.306485120809	3
33	47423	14.116354164141	2
33	50683	15.116355397942	2
33	53945	16.116351429961	2
33	54373	16.223144084565	2
33	57326	17.116349723682	3
33	57787	17.223142219741	3
33	60829	18.116360954287	3
33	61320	18.223140332069	3
33	64440	19.116359462774	3
33	64873	19.223138759687	2
33	67920	20.116361621336	2
33	68398	20.223140870832	2
33	71479	21.116351326262	2
33	71926	21.223148607444	2
33	74785	22.116351900452	2
33	75212	22.22314916421	2
33	78183	23.116352985859	2
33	78641	23.223137256924	2
33	81616	24.116354639978	2
33	82071	24.223138942667	2
33	85381	25.223141285458	2
33	88684	26.223143697857	2
33	91899	27.223146197693	2
33	355717	106.30425455842	3
33	357203	106.71219793868	1
33	361259	107.712198503202	1
33	365273	108.712200852699	1
33	367723	109.304249681881	1
33	369365	109.712192483117	1
33	373324	110.712190097521	1
33	377104	111.71220082561	1
33	381010	112.712198788599	1
33	384831	113.712197074392	1
33	388516	114.712195739841	1
33	392205	115.712198169054	1
33	438391	130.131586357412	1
33	441538	131.131589084364	1
33	444688	132.131591623145	1
33	447837	133.131593992691	1
33	450948	134.131583219795	1
33	454117	135.131585341463	1
33	457371	136.131583992549	1
33	460644	137.131590377405	1
33	463837	138.131583643481	1
33	464917	138.511303313544	1
33	466929	139.131588533068	1
33	468016	139.511294942118	1
33	470170	140.131593699948	2
33	471216	140.511299895946	2
33	473340	141.131589786183	2
33	474345	141.511295846294	2
33	477405	142.511297621251	2
33	480351	143.511299383789	2
33	483263	144.511302071868	2
33	486157	145.511291787818	2
33	596390	177.737715816133	3
33	600680	178.737722045616	1
33	604817	179.737716993077	1
33	608744	180.737723722893	1
33	612652	181.737716464103	1
33	616503	182.737721656271	1
33	620236	183.737726922411	1
33	623793	184.737719766584	1
33	627172	185.737726492455	1
33	630398	186.737716206986	1
33	633554	187.737719386076	1
33	636489	188.737723075334	1
33	639431	189.737722418185	1
33	642317	190.737721245993	1
33	645231	191.737720052352	1
33	648216	192.737718845904	1
33	651269	193.737717635333	1
33	654284	194.737716429242	1
33	657235	195.737728236049	1
33	660154	196.737727063896	1
33	663151	197.737725920574	1
33	666194	198.737724813472	1
33	669305	199.737723749554	1
34	9442	3.04330414878	0
34	12649	4.043306835801	1
34	15919	5.043296402724	1
34	19230	6.043298879786	1
34	22705	7.043301302919	1
34	26211	8.043303712144	1
34	29676	9.043306148634	1
34	33233	10.043301651345	1
34	36860	11.043304254452	1
34	40409	12.043306986228	1
34	88978	26.306486340097	1
34	92193	27.306489186648	1
34	95527	28.306491699757	1
34	98869	29.306493885802	1
34	102117	30.306482758849	1
34	105512	31.306484357676	1
34	109022	32.306485800982	1
34	112434	33.306487305469	1
34	115934	34.306489044112	1
34	119244	35.306491083019	1
34	122619	36.306493443987	1
34	125777	37.306483135985	1
34	170981	52.703396027276	2
34	174100	53.70339839923	1
34	177189	54.703400471999	1
34	180300	55.703402248372	1
34	183439	56.703403736343	1
34	186538	57.703404976213	1
34	189583	58.703393219772	1
34	192643	59.703394713303	1
34	195796	60.703396495519	1
34	199024	61.703398574214	1
34	202370	62.70340095213	1
34	264780	81.222802455508	1
34	268383	82.222792248396	1
34	271900	83.222794964408	1
34	275436	84.222797632171	1
34	278901	85.222800282794	1
34	351113	105.11684293636	1
34	355047	106.116850583577	1
34	358314	107.040663621831	1
34	358972	107.116839938129	1
34	359754	107.306493980388	2
34	362323	108.040666590657	3
34	362978	108.116842611917	3
34	363786	108.306483550528	3
34	366284	109.040665606137	3
34	366902	109.116841394709	3
34	367752	109.306489306474	3
34	370322	110.040665649223	3
34	370947	110.116841315634	3
34	371781	110.306489271365	3
34	374222	111.040665164576	3
34	374746	111.116840887958	3
34	375594	111.306488929826	3
34	377993	112.04066452205	3
34	378509	112.116840495563	3
34	379431	112.306488644431	3
34	381902	113.040664098181	3
34	382424	113.116840445609	3
34	385755	114.040661191196	3
34	386242	114.116850968488	3
34	389430	115.040658988841	3
34	389893	115.116849215113	3
34	393181	116.04066723729	3
34	396732	117.040660415825	3
34	400166	118.040667107083	3
34	403594	119.040665666489	3
34	406908	120.040659495516	2
34	410076	121.040662696116	2
34	413231	122.040664635401	2
34	416387	123.040658505369	1
34	437279	129.82463626114	2
34	440346	130.824629012206	1
34	443548	131.824632639485	1
34	446732	132.824635033481	1
34	449880	133.824637449012	1
34	453038	134.824626906895	1
34	456285	135.824629424059	1
34	608257	180.638819667246	2
34	612163	181.638822105178	1
34	616042	182.638824574714	1
34	619836	183.638814155794	1
35	9466	3.046841330815	0
35	12673	4.04684375222	1
35	15956	5.046845853448	1
35	19282	6.046847669818	1
35	22757	7.046836287623	1
35	26263	8.046837886113	1
35	29733	9.046839658088	1
35	33292	10.046841704582	1
35	36919	11.046836693665	1
35	61242	18.216425747088	1
35	62324	18.518197451271	0
35	64804	19.216425996782	2
35	65877	19.518197432377	2
35	68336	20.216425725706	2
35	69396	20.518196937955	2
35	71864	21.216425039147	2
35	72846	21.51819610214	2
35	75150	22.21642409281	2
35	76152	22.518195113474	2
35	78584	23.216423090507	2
35	79555	23.518207188111	2
35	82018	24.21642224456	2
35	82964	24.518206517056	2
35	85328	25.216421727948	2
35	86274	25.518206239772	2
35	88632	26.216426110049	2
35	91847	27.216423764375	2
35	95192	28.216421740405	2
35	98529	29.216420077151	2
[...]
88	265517	81.430042615554	2
88	268989	82.416829680946	2
88	269150	82.430039235836	2
88	272496	83.416830754885	2
88	272655	83.430040239713	2
88	276083	84.430034211618	2
88	279550	85.430041275563	2
88	283181	86.430035522613	2
88	286815	87.430033381474	2
88	290215	88.430034735428	1
88	293689	89.430036125671	1
88	297176	90.430037568946	1
88	300606	91.43003907679	1
88	304101	92.430037225883	1
88	307574	93.43003514624	1
88	321736	97.4300378739	1
88	325414	98.430039955377	1
88	329134	99.430042125268	1
88	332826	100.430044384194	1
88	336600	101.430033732655	1
88	340469	102.430036171057	1
88	344370	103.430038699733	1
88	348296	104.430041318963	1
88	393814	116.142722877103	1
88	407366	120.142733351487	1
88	427872	126.830387314593	1
88	430930	127.830386583226	0
88	434134	128.830385566507	1
88	444966	132.229825379184	1
88	513485	154.304252614407	1
88	516837	155.30425373814	1
88	520241	156.304254438895	1
88	523850	157.30426085855	1
88	523944	157.327800925754	1
88	527367	158.304250735425	2
88	527462	158.327790583633	2
88	530885	159.304259551185	2
88	530984	159.327799235609	2
88	534361	160.327799438968	2
88	537715	161.327793833203	2
88	541016	162.327801683955	2
88	544095	163.327797068734	2
88	547206	164.327790119288	2
88	550292	165.327792640167	1
88	553450	166.327802545721	1
88	556610	167.327802631418	1
88	559816	168.327797262041	1
88	563175	169.327791632012	1
88	665442	198.518247133571	2
88	668551	199.51824549431	1
89	138432	41.63881615395	0
89	141494	42.638819604668	1
89	144506	43.638823713465	1
89	147487	44.638815655655	1
89	150523	45.638813766691	1
89	153552	46.638816000365	1
89	156579	47.638818676505	1
89	221664	68.703397250848	1
89	225137	69.703396453223	1
89	228594	70.703398710634	1
89	232082	71.703400707476	1
89	235376	72.703402502094	1
89	238771	73.703404204052	1
89	242175	74.703392962254	1
89	245572	75.70339490021	1
89	249096	76.703397087495	1
89	252613	77.703399558728	1
89	301601	91.728496706826	2
89	305090	92.728499319598	1
89	481335	143.824624936317	1
89	484199	144.824636376332	1
89	487111	145.824634841911	1
89	490034	146.824633396368	1
90	145111	43.814437009907	1
90	148081	44.814435729437	1
90	151141	45.814434202936	1
90	154146	46.814445441226	1
90	157146	47.814443456712	1
90	160004	48.814441263725	1
90	162810	49.814442787792	1
90	165583	50.814444176573	1
90	168400	51.814445448208	1
90	171310	52.814433654474	1
90	174425	53.814434893854	1
90	177474	54.814438605421	1
90	180609	55.814436700589	1
90	183743	56.814438315588	1
90	186832	57.814436320232	1
90	189882	58.814434553759	1
90	192972	59.814446028098	1
90	196125	60.814444753526	1
90	199374	61.814443738944	1
90	202722	62.814446243961	1
90	205950	63.814435899533	1
90	209107	64.814444705872	1
90	248483	76.518250523734	1
90	251984	77.518249268866	1
90	255449	78.518250701231	1
90	258848	79.518245846968	1
90	262297	80.518253815711	1
90	262997	80.707702639999	2
90	265857	81.518243841522	2
90	266556	81.707696063047	2
90	270173	82.707699902084	2
90	273627	83.707707213011	2
90	277129	84.707695755139	2
90	280507	85.707697086792	2
90	284143	86.70769868217	1
90	287773	87.707700595967	1
90	291180	88.707702841606	1
90	294703	89.707705424085	1
90	429515	127.327790453014	1
90	432667	128.327794668189	0
90	435843	129.327793505536	1
90	438934	130.327792266968	1
90	442102	131.327790985877	1
90	445276	132.327802698479	1
90	448427	133.327801441121	1
90	451543	134.327800247545	1
90	454736	135.327799147017	1
90	457985	136.327798163669	1
90	506622	152.140688707503	2
90	509850	153.140687165614	1
90	513095	154.140685507059	1
90	516439	155.140683834445	1
90	519776	156.140682309459	1
90	523304	157.140684298826	1
90	526161	158.031474128511	1
90	526850	158.140689434252	1
90	529733	159.031462665269	2
90	533172	160.031470097518	2
90	536530	161.031464482302	2
90	539873	162.031465876912	2
90	542991	163.031470656088	2
90	546092	164.031470467108	2
90	549163	165.031469959298	1
90	552351	166.031469304363	1
90	555448	167.031468703961	1
90	558626	168.031468353415	1
90	657155	195.726181867704	2
90	660075	196.726177525246	1
91	149540	45.302405618543	1
91	152541	46.302408359127	1
91	155603	47.302407435147	1
91	158546	48.302406557818	1
91	161403	49.302405494055	1
91	171349	52.823756062791	1
91	171568	52.918757515876	1
91	172883	53.302405181504	3
91	174462	53.823755434991	3
91	174686	53.91875658196	3
91	175943	54.302404055724	3
91	177521	54.82375183259	2
91	177751	54.918752666114	2
91	180655	55.8237444566	3
91	180881	55.918757963503	3
91	183794	56.823744164291	3
91	184024	56.918757323076	3
91	186879	57.823746807482	3
91	187125	57.918759608664	3
91	189929	58.823745709853	3
91	190160	58.918758351488	3
91	193019	59.823745039233	3
91	193241	59.918757615458	3
91	196172	60.823745150608	3
91	196416	60.918757709728	2
91	199441	61.823746144541	2
91	199680	61.918758768615	2
91	203010	62.918753369611	2
91	206221	63.918759427288	2
91	209360	64.918749130815	2
91	211662	65.616911005732	3
91	212469	65.918755085841	3
91	214847	66.616922246188	3
91	215673	66.918753640949	3
91	218051	67.616920741769	3
91	218871	67.918756953619	3
91	221345	68.616910082144	3
91	222259	68.918749658549	3
91	224455	69.518204429776	3
91	224857	69.616915482237	3
91	225706	69.918760110857	3
91	227902	70.518201781985	3
91	228318	70.61691283241	3
91	229143	70.918757743119	3
91	231442	71.518194849049	3
91	231843	71.616918973118	3
91	235141	72.616915747677	3
91	238528	73.61691892409	3
91	241925	74.616914903018	3
91	282285	86.140690277201	4
91	285997	87.140684993613	1
91	289444	88.14068562353	1
91	292909	89.140685744087	1
91	294072	89.538887250476	1
91	296388	90.140684970498	2
91	297559	90.53888643873	2
91	299834	91.140689760021	2
91	300968	91.538889243466	2
91	303302	92.140686987861	2
91	304460	92.538886046309	2
91	306790	93.140689340431	2
91	307948	93.538887993556	2
91	311316	94.538884745316	2
91	312061	94.735663340779	3
91	314801	95.538877809136	3
91	315551	95.735656197475	3
91	318421	96.538883719839	3
91	319222	96.735661965294	3
91	322175	97.538889632102	3
91	322972	97.735654809541	3
91	325872	98.538882698305	3
91	326671	98.735660884916	3
91	544384	163.428573086076	3
91	547505	164.428572976064	1
91	550601	165.428562318749	1
91	553784	166.428572034927	1
91	556989	167.428564926382	1
91	560197	168.428572363609	1
91	563574	169.428566546355	1
91	566971	170.428568987275	1
91	570639	171.428571963254	1
91	572939	172.046844231505	1
91	574489	172.428566482844	2
91	576861	173.04683864543	2
91	578450	173.42856792059	2
91	580883	174.046843001435	2
91	582461	174.428567642259	2
91	584925	175.046845900828	2
91	586586	175.428565047146	2
91	589138	176.046843065898	2
91	590812	176.428562253643	2
91	593429	177.046838008062	2
91	594995	177.428568583502	2
91	597620	178.046844320966	2
91	599292	178.428569232447	2
91	603461	179.428563606736	2
91	607418	180.428562767736	2
91	609409	180.946324512247	2
91	611365	181.428562016685	3
91	613371	181.946323689616	3
91	615309	182.428567367984	3
91	617240	182.946328994728	3
91	620974	183.946328409784	3
91	624520	184.946329378847	2
91	627872	185.946331953485	2
91	631059	186.946321350607	2
91	634133	187.94632742507	1
91	637044	188.94632162532	1
91	639978	189.946329133194	1
91	642844	190.946332676804	1
91	645748	191.946322176116	1
92	149623	45.306486355892	1
92	152600	46.304254270627	1
92	152625	46.306485227803	1
92	155647	47.304253885179	1
92	155672	47.306484757123	1
92	158590	48.304253190404	2
92	158615	48.306483992579	2
92	161447	49.304252253059	2
92	161472	49.306483014314	2
92	164255	50.304251174146	2
92	164280	50.30649493464	2
92	167051	51.304250074544	2
92	167076	51.30649386948	2
92	169878	52.304249059265	2
92	169901	52.30649290626	2
92	172917	53.304261198625	2
92	172941	53.306492100823	2
92	175977	54.304256861161	2
92	176001	54.30648781515	2
92	179106	55.304251910311	2
92	182210	56.304253331411	2
92	266515	81.703396054024	2
92	270127	82.70339881753	1
92	273581	83.703401481459	1
92	277083	84.703404070839	1
92	280463	85.703393614296	1
92	281423	86.006129535668	1
92	284093	86.703397652142	2
92	285113	87.006128585164	2
92	288635	88.006126329414	2
92	291131	88.703396925737	2
92	292094	89.006127230878	2
92	294653	89.703397904932	2
92	295559	90.006131985687	2
92	298115	90.703402762047	2
92	299000	91.00612389583	2
92	302417	92.006135067821	2
92	305888	93.006128068402	2
92	391998	115.648614276595	2
92	395564	116.648613317505	0
92	398986	117.64861576543	1
92	402381	118.648605210051	1
92	405722	119.648607723027	1
92	431857	128.049915068062	2
92	435028	129.049913360446	1
92	438156	130.049924563376	1
92	441298	131.049919221177	1
92	444473	132.049913662806	1
92	447625	133.049924217558	1
92	450735	134.049921542766	1
92	453905	135.049918903733	1
92	457154	136.049916482403	1
92	460420	137.049914361755	1
92	463616	138.049925599753	1
92	466694	139.049924241946	1
92	469945	140.049923324245	1
92	473105	141.049925975399	1
92	488094	146.123614489559	2
92	507013	152.304255585105	2
92	510251	153.304254103271	1
92	513481	154.304252182087	1
92	516833	155.304253283966	1
92	520237	156.304253949311	1
92	523846	157.304260329279	1
92	527363	158.304250178877	1
92	530881	159.304258984888	1
92	534283	160.304253316288	1
92	537637	161.304261005968	1
92	540936	162.304256134225	1
92	544013	163.304251762313	1
92	585309	175.116841195355	2
92	589526	176.116840283824	1
92	593738	177.116839288993	1
92	597980	178.116841560675	1
92	602261	179.116838607254	1
92	606314	180.116849604239	1
92	610222	181.116847929211	1
92	612908	181.824635607594	1
92	614205	182.116848562747	2
92	616757	182.824636054619	2
92	618127	183.116848647711	2
92	620475	183.824636029395	2
92	621771	184.116842845633	2
92	623995	184.824637211545	2
92	625299	185.11684378537	2
92	627378	185.82462523292	2
92	628523	186.116844741861	2
92	630599	186.824626354095	2
92	631692	187.116850435358	2
92	634710	188.116842131723	2
92	637639	189.116840198905	2
92	640570	190.116838678164	2
92	643424	191.116840882718	2
92	646329	192.116843220416	2
92	649328	193.116842213868	1
92	652375	194.116841184009	1
93	150126	45.511302706292	0
93	153144	46.511292124994	1
93	156182	47.511294255512	1
93	159115	48.511296162321	1
93	161972	49.5112979637	1
93	164756	50.511299819117	1
93	167562	51.511301865357	1
93	170414	52.511291182915	1
93	244026	75.223145440134	1
93	247419	76.223145391274	1
93	250932	77.223138311668	1
93	254446	78.22314427753	1
93	257859	79.22313736675	1
93	261291	80.223148984032	1
93	452974	134.81049127752	2
93	456218	135.810493136354	1
93	459493	136.810495097327	1
93	462733	137.810499166668	1
93	465854	138.810488807725	1
93	469102	139.810499287473	1
93	472232	140.810497071639	1
93	475331	141.810495263092	1
93	478364	142.810493919366	1
93	481275	143.810496367959	1
93	514791	154.728497590371	1
93	518103	155.728495311186	1
93	521600	156.728504318387	1
93	525210	157.728504008561	1
93	528738	158.728507272368	1
93	532228	159.728501777392	1
93	595835	177.641903943879	1
93	600158	178.641897205607	1
93	604333	179.641905184168	1
93	608282	180.641898943802	1
93	612188	181.641904713396	1
93	616067	182.641896932344	1
93	619861	183.641902223476	1
93	623457	184.641895090655	1
93	626856	185.641901837337	1
93	630085	186.641904570268	1
93	633232	187.641894765133	1
93	636166	188.641898467336	1
93	639080	189.641897820119	1
93	641995	190.641896654694	1
93	644917	191.641895464546	1
93	647902	192.641894258258	1
93	650939	193.641893044512	1
93	653935	194.641904831963	1
93	656856	195.641903629134	1
93	659790	196.641902444317	1
93	662772	197.641901285482	1
93	665840	198.641900160222	1
93	668952	199.641899075715	1
94	153676	46.648681161135	1
94	156703	47.648683559346	1
94	159586	48.64868572236	1
94	162408	49.64868768037	1
94	165186	50.648676486924	1
94	168013	51.648678229088	1
94	170880	52.648680015582	1
94	173999	53.648681939626	1
94	177083	54.648684060655	1
94	180194	55.648686412367	1
94	183333	56.648689013963	1
94	222441	68.94481325767	2
94	225877	69.944812006813	1
94	229312	70.94481210823	1
94	232773	71.944820539716	2
94	236043	72.944820110872	2
94	239462	73.944819488537	2
94	242903	74.944812593305	2
94	246267	75.944818557735	2
94	249815	76.944818455715	2
94	253342	77.944811363573	1
94	256797	78.944817359721	1
94	260264	79.944810523043	1
94	263734	80.944812244355	1
94	267330	81.944813984125	1
94	274049	83.830391151385	2
94	277493	84.830393478294	2
94	392659	115.90338431866	3
94	396183	116.903386389697	1
94	399637	117.903388379916	1
94	403003	118.903390313671	1
94	406356	119.903384137727	1
94	409541	120.9033873284	1
94	412666	121.903389252073	1
94	415869	122.903396098616	1
94	418889	123.903390034546	1
94	421870	124.90338415031	1
94	424942	125.903393548378	1
94	428036	126.903384664366	1
94	431097	127.903389837633	1
94	622490	184.327794763608	1
94	625951	185.327794163843	0
94	632330	187.327792914032	1
94	644056	191.327801806302	1
94	646952	192.327791341167	1
95	166542	51.131587495877	0
95	169373	52.131584078961	1
95	300008	91.222797802138	1
95	303476	92.22280021893	1
95	306976	93.22278945844	1
95	310356	94.22279152256	1
95	313772	95.222793414305	1
95	317333	96.222795138847	1
95	321055	97.222796705956	1
95	324746	98.22279813628	1
95	328487	99.222799476362	1
95	332174	100.222800812427	1
95	335936	101.222795248488	1
95	339789	102.222792933835	1
95	340847	102.528321712506	1
95	343701	103.222793506721	2
95	344766	103.528321969518	2
95	347574	104.222793696353	2
95	348681	104.528329989171	2
95	351479	105.222796460953	2
95	352548	105.528332356789	2
95	355420	106.222798950088	2
95	356465	106.528323058139	2
95	359321	107.21069430061	3
95	359394	107.222799717768	3
95	360549	107.528323535353	3
95	363355	108.210694812225	3
95	363429	108.222800407933	3
95	364582	108.528324040732	3
95	367322	109.210691864628	3
95	367392	109.222797639766	3
95	368693	109.528328176072	3
95	371369	110.210688033165	3
95	375161	111.210696703479	3
95	378946	112.210686325239	3
95	382862	113.210687559414	3
95	386644	114.210689099511	3
95	431314	127.937246412531	2
95	434474	128.937244706884	1
95	437606	129.937242881096	1
95	440696	130.937237484505	1
95	443845	131.93724484936	1
95	447029	132.937239045816	1
95	450169	133.937236436522	1
95	453337	134.937233755515	1
95	456599	135.937244234335	1
95	459854	136.937242001207	1
95	463088	137.937240122949	1
95	466216	138.937238647323	1
95	469446	139.937237611013	1
95	472612	140.937240143106	1
95	488098	146.123614549873	2
95	491019	147.123619332462	1
95	493968	148.123618392241	1
95	496970	149.123617262903	1
95	500123	150.123616024366	1
95	505404	151.830390276144	1
95	508631	152.830385302787	2
95	511880	153.830383582895	2
95	515205	154.830381713667	2
95	518516	155.830392805193	2
95	522004	156.830391006285	1
95	525558	157.830389473337	1
95	529075	158.830387887308	1
95	532593	159.83038626956	1
95	535951	160.830391663147	1
95	583125	174.610953606557	1
95	587277	175.610956118823	1
95	591534	176.61094545856	1
95	595721	177.610947687924	1
95	600044	178.610949886101	1
95	604224	179.610952138095	1
95	608175	180.610954519171	1
96	181703	56.129814436318	0
96	184824	57.129817189628	1
96	187907	58.129819861425	1
96	190947	59.129822462866	1
96	194022	60.129825006634	1
96	197255	61.129814506875	1
96	200554	62.129816978991	1
96	203894	63.129819439273	1
96	207068	64.129821904407	1
96	210208	65.129824390916	1
96	213332	66.129817282711	2
96	216160	67.0415968763	2
96	216556	67.129817452847	2
96	219373	68.041596841651	2
96	222804	69.041594675816	2
96	226240	70.041594975811	2
96	229682	71.041595089857	2
96	233148	72.041595157594	2
96	236458	73.041603711447	1
96	236718	73.114544628723	1
96	239864	74.041602192684	2
96	240117	74.114542931015	2
96	243287	75.041592976577	2
96	243544	75.114546611026	2
96	246665	76.041594996197	2
96	246942	76.11454307609	2
96	250209	77.041604519159	2
96	250479	77.114545053221	2
96	253988	78.114544173885	2
96	257438	79.114542868225	2
96	259160	79.607346554988	2
96	262604	80.607350603119	3
96	265443	81.427198613798	4
96	266169	81.607349276291	4
96	269073	82.427197243948	4
96	269746	82.607347829631	3
96	272579	83.427195928943	3
96	273196	83.607346488208	3
96	276007	84.427196117521	3
96	276677	84.607341786994	2
96	313995	95.304249934722	3
96	317559	96.304261031427	1
96	321287	97.304258920833	1
96	324969	98.304256650278	1
96	326504	98.712199439207	1
96	326883	98.824626091709	1
96	328710	99.304259418667	2
96	330203	99.712202054403	2
96	330575	99.824628674339	2
96	332397	100.30425743135	3
96	333901	100.712199959724	3
96	334271	100.824626548386	3
96	336164	101.304259874625	3
96	337694	101.712198151045	3
96	338077	101.824637709804	3
96	340018	102.304253475773	3
96	341575	102.712191564783	3
96	343920	103.304252940414	3
96	345468	103.712190887967	3
96	345819	103.824630391358	3
96	347837	104.304259357342	3
96	349381	104.712197207985	3
96	349725	104.824636686077	3
96	353598	105.824627597027	3
96	357513	106.824630298801	3
96	361540	107.82463271848	3
96	365540	108.824635119479	3
96	369634	109.824637503797	3
96	373597	110.824626873505	1
96	377372	111.824629230742	1
96	381279	112.824631577705	1
96	385115	113.824633916644	1
96	388805	114.824636249846	1
96	392496	115.824625579631	1
96	396020	116.824627908335	1
96	399472	117.8246302383	1
96	402833	118.824635235686	1
96	406161	119.824634125884	1
96	409379	120.824632880067	1
96	412504	121.824631559727	1
96	415702	122.824630232785	1
96	418725	123.824628968698	1
96	421706	124.824627832966	1
96	424783	125.824628186124	1
96	427848	126.824627030277	1
96	430904	127.824625640433	1
96	434108	128.824631034691	1
96	437275	129.824636238059	1
96	440350	130.824629081741	1
96	444340	132.04066697844	2
96	447495	133.040656828531	2
96	450613	134.040662978232	2
96	571925	171.803625233719	2
96	575836	172.803627243654	1
96	579828	173.803619472958	1
96	583820	174.803627982031	1
96	587998	175.803616968067	1
96	592344	176.803618965218	1
96	596502	177.80362099631	1
96	600792	178.803623077739	1
96	604929	179.8036251966	1
96	608859	180.803628580338	1
96	612772	181.803617689957	1
96	616626	182.803619905822	1
96	620357	183.803622253713	1
97	191873	59.42918510948	0
97	195005	60.429182293436	1
97	198233	61.429186719588	1
97	201567	62.429181384776	1
97	204855	63.429176104033	1
97	208044	64.429187437352	1
97	211143	65.429176443175	1
97	214246	66.429178717851	1
97	331229	100.017797461349	2
97	338762	102.01779344623	1
97	342584	103.017792852166	1
97	346467	104.017799197736	1
97	350353	105.017792565608	1
97	352965	105.641902630676	1
97	356848	106.64189225262	2
97	360911	107.641892928459	2
97	364921	108.641895376945	2
97	369008	109.641900084724	2
97	372950	110.641897740515	2
97	376766	111.641895461533	1
97	380630	112.641893371451	1
97	384456	113.641904572561	1
97	388193	114.641903134846	1
97	391892	115.641892450329	1
98	262782	80.647930599824	1
98	266362	81.647920457286	1
98	269946	82.647924461845	1
98	273411	83.64791893073	1
98	276916	84.647920598411	1
98	280299	85.647921918115	1
98	283922	86.647923379931	1
98	287578	87.647925134174	1
98	290969	88.64792721378	1
98	294481	89.64792962779	1
98	415432	122.715810548695	1
98	418456	123.715809560054	1
98	421432	124.71580840357	1
98	424509	125.715816725373	1
98	427569	126.715815239463	1
98	430657	127.715813592444	1
98	433842	128.715811787404	1
98	437013	129.71581042598	1
98	440099	130.715809098767	1
98	443268	131.715806871086	1
98	446452	132.715804600569	1
98	449616	133.715815421654	1
98	452739	134.715813390405	1
98	455971	135.715811522428	1
98	459223	136.715809824192	1
98	462471	137.715808299474	1
98	465592	138.715806951003	1
98	468835	139.715805781004	1
98	471975	140.715808111008	1
98	475074	141.715810602026	1
99	392831	115.94093399549	0
99	396351	116.940927292358	1
99	403181	118.940934014205	1
99	407346	120.140692533652	2
99	410464	121.140692449448	2
99	486703	145.648685368052	2
99	489641	146.648687765956	1
99	492559	147.648677186951	1
99	495503	148.648686636287	1
99	498565	149.648686727903	1
99	501728	150.648688929318	1
99	504833	151.648677855557	1
99	508076	152.648679647511	1
99	511353	153.648687443936	1
99	514587	154.648682375759	1
99	517903	155.648680134008	1
99	521344	156.648960791452	1
99	598139	178.140692375755	1
99	602422	179.140681760481	1
99	606480	180.140683804642	1
99	610391	181.140685610553	1
99	614380	182.140687375498	1
99	618307	183.140689320275	1
99	621978	184.140691579118	1

