version 2
run General-0-20190708-22:38:11-9162
attr configname General
attr datetime 20190708-22:38:11
attr experiment General
attr inifile omnetpp.ini
attr iterationvars ""
attr iterationvarsf ""
attr measurement ""
attr network SimpleScenario
attr processid 9162
attr repetition 0
attr replication #0
attr resultdir results
attr runnumber 0
attr seedset 0
param *.playgroundSizeX 200m
param *.playgroundSizeY 200m
param *.playgroundSizeZ 50m
param *.world.useTorus false
param *.world.use2D false
param *.annotations.draw true
param *.connectionManager.sendDirect true
param *.connectionManager.maxInterfDist 50m
param *.connectionManager.drawMaxIntfDist false
param *.**.nic.mac1609_4.useServiceChannel false
param *.**.nic.mac1609_4.txPower 5mW
param *.**.nic.mac1609_4.bitrate 6Mbps
param *.**.nic.phy80211p.minPowerLevel -110dBm
param *.**.nic.phy80211p.useNoiseFloor true
param *.**.nic.phy80211p.noiseFloor -98dBm
param *.**.nic.phy80211p.decider "xmldoc(\"config.xml\")"
param *.**.nic.phy80211p.analogueModels "xmldoc(\"config.xml\")"
param *.**.nic.phy80211p.usePropagationDelay true
param *.**.nic.phy80211p.antenna "xmldoc(\"antenna.xml\", \"/root/Antenna[@id='monopole']\")"
param *.node[*].nic.phy80211p.antennaOffsetY "0 m"
param *.node[*].nic.phy80211p.antennaOffsetZ "1.895 m"
param *.node[*].applType "\"SimpleWaveApp\""
param *.node[*].appl.headerLength "80 bit"
param *.node[*].appl.sendBeacons false
param *.node[*].appl.dataOnSch false
param *.node[*].appl.beaconInterval 0.1s
param *.node[*].appl.beaconPriority 2
param *.node[*].mobility.z 1.895
param *.node[*].mobility.y 100
param *.node[0].mobility.x 80
param *.node[1].mobility.x 90
param *.node[2].mobility.x 100
param *.node[3].mobility.x 110
param *.node[4].mobility.x 120
param *.node[*].mobility.angle "uniform(0deg, 359deg)"
param *.node[*].mobility.acceleration 0mpss
param *.node[*].mobility.updateInterval 100ms
param *.node[*].mobility.speed -1mps

scalar SimpleScenario.node[0].appl generatedWSMs 0
scalar SimpleScenario.node[0].appl receivedWSMs 0
scalar SimpleScenario.node[0].appl generatedBSMs 0
scalar SimpleScenario.node[0].appl receivedBSMs 0
scalar SimpleScenario.node[0].nic.phy80211p busyTime 0
scalar SimpleScenario.node[0].nic.mac1609_4 ReceivedUnicastPackets 0
scalar SimpleScenario.node[0].nic.mac1609_4 ReceivedBroadcasts 0
scalar SimpleScenario.node[0].nic.mac1609_4 SentPackets 0
scalar SimpleScenario.node[0].nic.mac1609_4 SentAcknowledgements 0
scalar SimpleScenario.node[0].nic.mac1609_4 SNIRLostPackets 0
scalar SimpleScenario.node[0].nic.mac1609_4 RXTXLostPackets 0
scalar SimpleScenario.node[0].nic.mac1609_4 TotalLostPackets 0
scalar SimpleScenario.node[0].nic.mac1609_4 DroppedPacketsInMac 0
scalar SimpleScenario.node[0].nic.mac1609_4 TooLittleTime 0
scalar SimpleScenario.node[0].nic.mac1609_4 TimesIntoBackoff 0
scalar SimpleScenario.node[0].nic.mac1609_4 SlotsBackoff 0
scalar SimpleScenario.node[0].nic.mac1609_4 NumInternalContention 0
scalar SimpleScenario.node[0].nic.mac1609_4 totalBusyTime 0
scalar SimpleScenario.node[1].appl generatedWSMs 0
scalar SimpleScenario.node[1].appl receivedWSMs 0
scalar SimpleScenario.node[1].appl generatedBSMs 0
scalar SimpleScenario.node[1].appl receivedBSMs 0
scalar SimpleScenario.node[1].nic.phy80211p busyTime 0
scalar SimpleScenario.node[1].nic.mac1609_4 ReceivedUnicastPackets 0
scalar SimpleScenario.node[1].nic.mac1609_4 ReceivedBroadcasts 0
scalar SimpleScenario.node[1].nic.mac1609_4 SentPackets 0
scalar SimpleScenario.node[1].nic.mac1609_4 SentAcknowledgements 0
scalar SimpleScenario.node[1].nic.mac1609_4 SNIRLostPackets 0
scalar SimpleScenario.node[1].nic.mac1609_4 RXTXLostPackets 0
scalar SimpleScenario.node[1].nic.mac1609_4 TotalLostPackets 0
scalar SimpleScenario.node[1].nic.mac1609_4 DroppedPacketsInMac 0
scalar SimpleScenario.node[1].nic.mac1609_4 TooLittleTime 0
scalar SimpleScenario.node[1].nic.mac1609_4 TimesIntoBackoff 0
scalar SimpleScenario.node[1].nic.mac1609_4 SlotsBackoff 0
scalar SimpleScenario.node[1].nic.mac1609_4 NumInternalContention 0
scalar SimpleScenario.node[1].nic.mac1609_4 totalBusyTime 0
scalar SimpleScenario.node[2].appl generatedWSMs 0
scalar SimpleScenario.node[2].appl receivedWSMs 0
scalar SimpleScenario.node[2].appl generatedBSMs 0
scalar SimpleScenario.node[2].appl receivedBSMs 0
scalar SimpleScenario.node[2].nic.phy80211p busyTime 0
scalar SimpleScenario.node[2].nic.mac1609_4 ReceivedUnicastPackets 0
scalar SimpleScenario.node[2].nic.mac1609_4 ReceivedBroadcasts 0
scalar SimpleScenario.node[2].nic.mac1609_4 SentPackets 0
scalar SimpleScenario.node[2].nic.mac1609_4 SentAcknowledgements 0
scalar SimpleScenario.node[2].nic.mac1609_4 SNIRLostPackets 0
scalar SimpleScenario.node[2].nic.mac1609_4 RXTXLostPackets 0
scalar SimpleScenario.node[2].nic.mac1609_4 TotalLostPackets 0
scalar SimpleScenario.node[2].nic.mac1609_4 DroppedPacketsInMac 0
scalar SimpleScenario.node[2].nic.mac1609_4 TooLittleTime 0
scalar SimpleScenario.node[2].nic.mac1609_4 TimesIntoBackoff 0
scalar SimpleScenario.node[2].nic.mac1609_4 SlotsBackoff 0
scalar SimpleScenario.node[2].nic.mac1609_4 NumInternalContention 0
scalar SimpleScenario.node[2].nic.mac1609_4 totalBusyTime 0
scalar SimpleScenario.node[3].appl generatedWSMs 0
scalar SimpleScenario.node[3].appl receivedWSMs 0
scalar SimpleScenario.node[3].appl generatedBSMs 0
scalar SimpleScenario.node[3].appl receivedBSMs 0
scalar SimpleScenario.node[3].nic.phy80211p busyTime 0
scalar SimpleScenario.node[3].nic.mac1609_4 ReceivedUnicastPackets 0
scalar SimpleScenario.node[3].nic.mac1609_4 ReceivedBroadcasts 0
scalar SimpleScenario.node[3].nic.mac1609_4 SentPackets 0
scalar SimpleScenario.node[3].nic.mac1609_4 SentAcknowledgements 0
scalar SimpleScenario.node[3].nic.mac1609_4 SNIRLostPackets 0
scalar SimpleScenario.node[3].nic.mac1609_4 RXTXLostPackets 0
scalar SimpleScenario.node[3].nic.mac1609_4 TotalLostPackets 0
scalar SimpleScenario.node[3].nic.mac1609_4 DroppedPacketsInMac 0
scalar SimpleScenario.node[3].nic.mac1609_4 TooLittleTime 0
scalar SimpleScenario.node[3].nic.mac1609_4 TimesIntoBackoff 0
scalar SimpleScenario.node[3].nic.mac1609_4 SlotsBackoff 0
scalar SimpleScenario.node[3].nic.mac1609_4 NumInternalContention 0
scalar SimpleScenario.node[3].nic.mac1609_4 totalBusyTime 0
scalar SimpleScenario.node[4].appl generatedWSMs 0
scalar SimpleScenario.node[4].appl receivedWSMs 0
scalar SimpleScenario.node[4].appl generatedBSMs 0
scalar SimpleScenario.node[4].appl receivedBSMs 0
scalar SimpleScenario.node[4].nic.phy80211p busyTime 0
scalar SimpleScenario.node[4].nic.mac1609_4 ReceivedUnicastPackets 0
scalar SimpleScenario.node[4].nic.mac1609_4 ReceivedBroadcasts 0
scalar SimpleScenario.node[4].nic.mac1609_4 SentPackets 0
scalar SimpleScenario.node[4].nic.mac1609_4 SentAcknowledgements 0
scalar SimpleScenario.node[4].nic.mac1609_4 SNIRLostPackets 0
scalar SimpleScenario.node[4].nic.mac1609_4 RXTXLostPackets 0
scalar SimpleScenario.node[4].nic.mac1609_4 TotalLostPackets 0
scalar SimpleScenario.node[4].nic.mac1609_4 DroppedPacketsInMac 0
scalar SimpleScenario.node[4].nic.mac1609_4 TooLittleTime 0
scalar SimpleScenario.node[4].nic.mac1609_4 TimesIntoBackoff 0
scalar SimpleScenario.node[4].nic.mac1609_4 SlotsBackoff 0
scalar SimpleScenario.node[4].nic.mac1609_4 NumInternalContention 0
scalar SimpleScenario.node[4].nic.mac1609_4 totalBusyTime 0
scalar SimpleScenario.node[5].appl generatedWSMs 2
scalar SimpleScenario.node[5].appl receivedWSMs 0
scalar SimpleScenario.node[5].appl generatedBSMs 3
scalar SimpleScenario.node[5].appl receivedBSMs 4
scalar SimpleScenario.node[5].nic.phy80211p busyTime 1.4410005437738
scalar SimpleScenario.node[5].nic.mac1609_4 ReceivedUnicastPackets 0
scalar SimpleScenario.node[5].nic.mac1609_4 ReceivedBroadcasts 4
scalar SimpleScenario.node[5].nic.mac1609_4 SentPackets 1
scalar SimpleScenario.node[5].nic.mac1609_4 SentAcknowledgements 0
scalar SimpleScenario.node[5].nic.mac1609_4 SNIRLostPackets 90
scalar SimpleScenario.node[5].nic.mac1609_4 RXTXLostPackets 2
scalar SimpleScenario.node[5].nic.mac1609_4 TotalLostPackets 92
scalar SimpleScenario.node[5].nic.mac1609_4 DroppedPacketsInMac 0
scalar SimpleScenario.node[5].nic.mac1609_4 TooLittleTime 0
scalar SimpleScenario.node[5].nic.mac1609_4 TimesIntoBackoff 1
scalar SimpleScenario.node[5].nic.mac1609_4 SlotsBackoff 9
scalar SimpleScenario.node[5].nic.mac1609_4 NumInternalContention 0
scalar SimpleScenario.node[5].nic.mac1609_4 totalBusyTime 0.002865
scalar SimpleScenario.node[6].appl generatedWSMs 2
scalar SimpleScenario.node[6].appl receivedWSMs 0
scalar SimpleScenario.node[6].appl generatedBSMs 2
scalar SimpleScenario.node[6].appl receivedBSMs 4
scalar SimpleScenario.node[6].nic.phy80211p busyTime 1.4834148994018
scalar SimpleScenario.node[6].nic.mac1609_4 ReceivedUnicastPackets 0
scalar SimpleScenario.node[6].nic.mac1609_4 ReceivedBroadcasts 4
scalar SimpleScenario.node[6].nic.mac1609_4 SentPackets 0
scalar SimpleScenario.node[6].nic.mac1609_4 SentAcknowledgements 0
scalar SimpleScenario.node[6].nic.mac1609_4 SNIRLostPackets 93
scalar SimpleScenario.node[6].nic.mac1609_4 RXTXLostPackets 0
scalar SimpleScenario.node[6].nic.mac1609_4 TotalLostPackets 93
scalar SimpleScenario.node[6].nic.mac1609_4 DroppedPacketsInMac 0
scalar SimpleScenario.node[6].nic.mac1609_4 TooLittleTime 0
scalar SimpleScenario.node[6].nic.mac1609_4 TimesIntoBackoff 0
scalar SimpleScenario.node[6].nic.mac1609_4 SlotsBackoff 0
scalar SimpleScenario.node[6].nic.mac1609_4 NumInternalContention 0
scalar SimpleScenario.node[6].nic.mac1609_4 totalBusyTime 0.002864
scalar SimpleScenario.node[7].appl generatedWSMs 2
scalar SimpleScenario.node[7].appl receivedWSMs 0
scalar SimpleScenario.node[7].appl generatedBSMs 2
scalar SimpleScenario.node[7].appl receivedBSMs 4
scalar SimpleScenario.node[7].nic.phy80211p busyTime 1.2506797172376
scalar SimpleScenario.node[7].nic.mac1609_4 ReceivedUnicastPackets 0
scalar SimpleScenario.node[7].nic.mac1609_4 ReceivedBroadcasts 4
scalar SimpleScenario.node[7].nic.mac1609_4 SentPackets 3
scalar SimpleScenario.node[7].nic.mac1609_4 SentAcknowledgements 0
scalar SimpleScenario.node[7].nic.mac1609_4 SNIRLostPackets 82
scalar SimpleScenario.node[7].nic.mac1609_4 RXTXLostPackets 9
scalar SimpleScenario.node[7].nic.mac1609_4 TotalLostPackets 91
scalar SimpleScenario.node[7].nic.mac1609_4 DroppedPacketsInMac 0
scalar SimpleScenario.node[7].nic.mac1609_4 TooLittleTime 0
scalar SimpleScenario.node[7].nic.mac1609_4 TimesIntoBackoff 3
scalar SimpleScenario.node[7].nic.mac1609_4 SlotsBackoff 22
scalar SimpleScenario.node[7].nic.mac1609_4 NumInternalContention 0
scalar SimpleScenario.node[7].nic.mac1609_4 totalBusyTime 0.002866
scalar SimpleScenario.node[8].appl generatedWSMs 2
scalar SimpleScenario.node[8].appl receivedWSMs 0
scalar SimpleScenario.node[8].appl generatedBSMs 2
scalar SimpleScenario.node[8].appl receivedBSMs 4
scalar SimpleScenario.node[8].nic.phy80211p busyTime 1.1636759108211
scalar SimpleScenario.node[8].nic.mac1609_4 ReceivedUnicastPackets 0
scalar SimpleScenario.node[8].nic.mac1609_4 ReceivedBroadcasts 4
scalar SimpleScenario.node[8].nic.mac1609_4 SentPackets 4
scalar SimpleScenario.node[8].nic.mac1609_4 SentAcknowledgements 0
scalar SimpleScenario.node[8].nic.mac1609_4 SNIRLostPackets 71
scalar SimpleScenario.node[8].nic.mac1609_4 RXTXLostPackets 18
scalar SimpleScenario.node[8].nic.mac1609_4 TotalLostPackets 89
scalar SimpleScenario.node[8].nic.mac1609_4 DroppedPacketsInMac 0
scalar SimpleScenario.node[8].nic.mac1609_4 TooLittleTime 0
scalar SimpleScenario.node[8].nic.mac1609_4 TimesIntoBackoff 5
scalar SimpleScenario.node[8].nic.mac1609_4 SlotsBackoff 16
scalar SimpleScenario.node[8].nic.mac1609_4 NumInternalContention 0
scalar SimpleScenario.node[8].nic.mac1609_4 totalBusyTime 0.002868
scalar SimpleScenario.node[9].appl generatedWSMs 2
scalar SimpleScenario.node[9].appl receivedWSMs 0
scalar SimpleScenario.node[9].appl generatedBSMs 2
scalar SimpleScenario.node[9].appl receivedBSMs 4
scalar SimpleScenario.node[9].nic.phy80211p busyTime 1.2952691680261
scalar SimpleScenario.node[9].nic.mac1609_4 ReceivedUnicastPackets 0
scalar SimpleScenario.node[9].nic.mac1609_4 ReceivedBroadcasts 4
scalar SimpleScenario.node[9].nic.mac1609_4 SentPackets 3
scalar SimpleScenario.node[9].nic.mac1609_4 SentAcknowledgements 0
scalar SimpleScenario.node[9].nic.mac1609_4 SNIRLostPackets 80
scalar SimpleScenario.node[9].nic.mac1609_4 RXTXLostPackets 10
scalar SimpleScenario.node[9].nic.mac1609_4 TotalLostPackets 90
scalar SimpleScenario.node[9].nic.mac1609_4 DroppedPacketsInMac 0
scalar SimpleScenario.node[9].nic.mac1609_4 TooLittleTime 0
scalar SimpleScenario.node[9].nic.mac1609_4 TimesIntoBackoff 3
scalar SimpleScenario.node[9].nic.mac1609_4 SlotsBackoff 15
scalar SimpleScenario.node[9].nic.mac1609_4 NumInternalContention 0
scalar SimpleScenario.node[9].nic.mac1609_4 totalBusyTime 0.002867
scalar SimpleScenario.node[10].appl generatedWSMs 2
scalar SimpleScenario.node[10].appl receivedWSMs 0
scalar SimpleScenario.node[10].appl generatedBSMs 2
scalar SimpleScenario.node[10].appl receivedBSMs 4
scalar SimpleScenario.node[10].nic.phy80211p busyTime 1.4834148994018
scalar SimpleScenario.node[10].nic.mac1609_4 ReceivedUnicastPackets 0
scalar SimpleScenario.node[10].nic.mac1609_4 ReceivedBroadcasts 4
scalar SimpleScenario.node[10].nic.mac1609_4 SentPackets 0
scalar SimpleScenario.node[10].nic.mac1609_4 SentAcknowledgements 0
scalar SimpleScenario.node[10].nic.mac1609_4 SNIRLostPackets 93
scalar SimpleScenario.node[10].nic.mac1609_4 RXTXLostPackets 0
scalar SimpleScenario.node[10].nic.mac1609_4 TotalLostPackets 93
scalar SimpleScenario.node[10].nic.mac1609_4 DroppedPacketsInMac 0
scalar SimpleScenario.node[10].nic.mac1609_4 TooLittleTime 0
scalar SimpleScenario.node[10].nic.mac1609_4 TimesIntoBackoff 0
scalar SimpleScenario.node[10].nic.mac1609_4 SlotsBackoff 0
scalar SimpleScenario.node[10].nic.mac1609_4 NumInternalContention 0
scalar SimpleScenario.node[10].nic.mac1609_4 totalBusyTime 0.002864
scalar SimpleScenario.node[11].appl generatedWSMs 2
scalar SimpleScenario.node[11].appl receivedWSMs 0
scalar SimpleScenario.node[11].appl generatedBSMs 3
scalar SimpleScenario.node[11].appl receivedBSMs 4
scalar SimpleScenario.node[11].nic.phy80211p busyTime 1.2952691680261
scalar SimpleScenario.node[11].nic.mac1609_4 ReceivedUnicastPackets 0
scalar SimpleScenario.node[11].nic.mac1609_4 ReceivedBroadcasts 4
scalar SimpleScenario.node[11].nic.mac1609_4 SentPackets 3
scalar SimpleScenario.node[11].nic.mac1609_4 SentAcknowledgements 0
scalar SimpleScenario.node[11].nic.mac1609_4 SNIRLostPackets 85
scalar SimpleScenario.node[11].nic.mac1609_4 RXTXLostPackets 6
scalar SimpleScenario.node[11].nic.mac1609_4 TotalLostPackets 91
scalar SimpleScenario.node[11].nic.mac1609_4 DroppedPacketsInMac 0
scalar SimpleScenario.node[11].nic.mac1609_4 TooLittleTime 0
scalar SimpleScenario.node[11].nic.mac1609_4 TimesIntoBackoff 2
scalar SimpleScenario.node[11].nic.mac1609_4 SlotsBackoff 22
scalar SimpleScenario.node[11].nic.mac1609_4 NumInternalContention 0
scalar SimpleScenario.node[11].nic.mac1609_4 totalBusyTime 0.002866
scalar SimpleScenario.node[12].appl generatedWSMs 2
scalar SimpleScenario.node[12].appl receivedWSMs 0
scalar SimpleScenario.node[12].appl generatedBSMs 3
scalar SimpleScenario.node[12].appl receivedBSMs 4
scalar SimpleScenario.node[12].nic.phy80211p busyTime 1.2746057640022
scalar SimpleScenario.node[12].nic.mac1609_4 ReceivedUnicastPackets 0
scalar SimpleScenario.node[12].nic.mac1609_4 ReceivedBroadcasts 4
scalar SimpleScenario.node[12].nic.mac1609_4 SentPackets 3
scalar SimpleScenario.node[12].nic.mac1609_4 SentAcknowledgements 0
scalar SimpleScenario.node[12].nic.mac1609_4 SNIRLostPackets 84
scalar SimpleScenario.node[12].nic.mac1609_4 RXTXLostPackets 7
scalar SimpleScenario.node[12].nic.mac1609_4 TotalLostPackets 91
scalar SimpleScenario.node[12].nic.mac1609_4 DroppedPacketsInMac 0
scalar SimpleScenario.node[12].nic.mac1609_4 TooLittleTime 0
scalar SimpleScenario.node[12].nic.mac1609_4 TimesIntoBackoff 2
scalar SimpleScenario.node[12].nic.mac1609_4 SlotsBackoff 10
scalar SimpleScenario.node[12].nic.mac1609_4 NumInternalContention 0
scalar SimpleScenario.node[12].nic.mac1609_4 totalBusyTime 0.002866
scalar SimpleScenario.node[13].appl generatedWSMs 2
scalar SimpleScenario.node[13].appl receivedWSMs 0
scalar SimpleScenario.node[13].appl generatedBSMs 2
scalar SimpleScenario.node[13].appl receivedBSMs 4
scalar SimpleScenario.node[13].nic.phy80211p busyTime 1.2180532898314
scalar SimpleScenario.node[13].nic.mac1609_4 ReceivedUnicastPackets 0
scalar SimpleScenario.node[13].nic.mac1609_4 ReceivedBroadcasts 4
scalar SimpleScenario.node[13].nic.mac1609_4 SentPackets 4
scalar SimpleScenario.node[13].nic.mac1609_4 SentAcknowledgements 0
scalar SimpleScenario.node[13].nic.mac1609_4 SNIRLostPackets 75
scalar SimpleScenario.node[13].nic.mac1609_4 RXTXLostPackets 14
scalar SimpleScenario.node[13].nic.mac1609_4 TotalLostPackets 89
scalar SimpleScenario.node[13].nic.mac1609_4 DroppedPacketsInMac 0
scalar SimpleScenario.node[13].nic.mac1609_4 TooLittleTime 0
scalar SimpleScenario.node[13].nic.mac1609_4 TimesIntoBackoff 4
scalar SimpleScenario.node[13].nic.mac1609_4 SlotsBackoff 32
scalar SimpleScenario.node[13].nic.mac1609_4 NumInternalContention 0
scalar SimpleScenario.node[13].nic.mac1609_4 totalBusyTime 0.002868
scalar SimpleScenario.node[14].appl generatedWSMs 2
scalar SimpleScenario.node[14].appl receivedWSMs 0
scalar SimpleScenario.node[14].appl generatedBSMs 2
scalar SimpleScenario.node[14].appl receivedBSMs 4
scalar SimpleScenario.node[14].nic.phy80211p busyTime 1.4834148994018
scalar SimpleScenario.node[14].nic.mac1609_4 ReceivedUnicastPackets 0
scalar SimpleScenario.node[14].nic.mac1609_4 ReceivedBroadcasts 4
scalar SimpleScenario.node[14].nic.mac1609_4 SentPackets 0
scalar SimpleScenario.node[14].nic.mac1609_4 SentAcknowledgements 0
scalar SimpleScenario.node[14].nic.mac1609_4 SNIRLostPackets 93
scalar SimpleScenario.node[14].nic.mac1609_4 RXTXLostPackets 0
scalar SimpleScenario.node[14].nic.mac1609_4 TotalLostPackets 93
scalar SimpleScenario.node[14].nic.mac1609_4 DroppedPacketsInMac 0
scalar SimpleScenario.node[14].nic.mac1609_4 TooLittleTime 0
scalar SimpleScenario.node[14].nic.mac1609_4 TimesIntoBackoff 0
scalar SimpleScenario.node[14].nic.mac1609_4 SlotsBackoff 0
scalar SimpleScenario.node[14].nic.mac1609_4 NumInternalContention 0
scalar SimpleScenario.node[14].nic.mac1609_4 totalBusyTime 0.002864
scalar SimpleScenario.node[15].appl generatedWSMs 2
scalar SimpleScenario.node[15].appl receivedWSMs 0
scalar SimpleScenario.node[15].appl generatedBSMs 2
scalar SimpleScenario.node[15].appl receivedBSMs 4
scalar SimpleScenario.node[15].nic.phy80211p busyTime 1.4834148994018
scalar SimpleScenario.node[15].nic.mac1609_4 ReceivedUnicastPackets 0
scalar SimpleScenario.node[15].nic.mac1609_4 ReceivedBroadcasts 4
scalar SimpleScenario.node[15].nic.mac1609_4 SentPackets 0
scalar SimpleScenario.node[15].nic.mac1609_4 SentAcknowledgements 0
scalar SimpleScenario.node[15].nic.mac1609_4 SNIRLostPackets 93
scalar SimpleScenario.node[15].nic.mac1609_4 RXTXLostPackets 0
scalar SimpleScenario.node[15].nic.mac1609_4 TotalLostPackets 93
scalar SimpleScenario.node[15].nic.mac1609_4 DroppedPacketsInMac 0
scalar SimpleScenario.node[15].nic.mac1609_4 TooLittleTime 0
scalar SimpleScenario.node[15].nic.mac1609_4 TimesIntoBackoff 0
scalar SimpleScenario.node[15].nic.mac1609_4 SlotsBackoff 0
scalar SimpleScenario.node[15].nic.mac1609_4 NumInternalContention 0
scalar SimpleScenario.node[15].nic.mac1609_4 totalBusyTime 0.002864
scalar SimpleScenario.node[16].appl generatedWSMs 2
scalar SimpleScenario.node[16].appl receivedWSMs 0
scalar SimpleScenario.node[16].appl generatedBSMs 2
scalar SimpleScenario.node[16].appl receivedBSMs 4
scalar SimpleScenario.node[16].nic.phy80211p busyTime 1.4834148994018
scalar SimpleScenario.node[16].nic.mac1609_4 ReceivedUnicastPackets 0
scalar SimpleScenario.node[16].nic.mac1609_4 ReceivedBroadcasts 4
scalar SimpleScenario.node[16].nic.mac1609_4 SentPackets 0
scalar SimpleScenario.node[16].nic.mac1609_4 SentAcknowledgements 0
scalar SimpleScenario.node[16].nic.mac1609_4 SNIRLostPackets 93
scalar SimpleScenario.node[16].nic.mac1609_4 RXTXLostPackets 0
scalar SimpleScenario.node[16].nic.mac1609_4 TotalLostPackets 93
scalar SimpleScenario.node[16].nic.mac1609_4 DroppedPacketsInMac 0
scalar SimpleScenario.node[16].nic.mac1609_4 TooLittleTime 0
scalar SimpleScenario.node[16].nic.mac1609_4 TimesIntoBackoff 0
scalar SimpleScenario.node[16].nic.mac1609_4 SlotsBackoff 0
scalar SimpleScenario.node[16].nic.mac1609_4 NumInternalContention 0
scalar SimpleScenario.node[16].nic.mac1609_4 totalBusyTime 0.002864
scalar SimpleScenario.node[17].appl generatedWSMs 2
scalar SimpleScenario.node[17].appl receivedWSMs 0
scalar SimpleScenario.node[17].appl generatedBSMs 2
scalar SimpleScenario.node[17].appl receivedBSMs 4
scalar SimpleScenario.node[17].nic.phy80211p busyTime 1.3822729744426
scalar SimpleScenario.node[17].nic.mac1609_4 ReceivedUnicastPackets 0
scalar SimpleScenario.node[17].nic.mac1609_4 ReceivedBroadcasts 4
scalar SimpleScenario.node[17].nic.mac1609_4 SentPackets 2
scalar SimpleScenario.node[17].nic.mac1609_4 SentAcknowledgements 0
scalar SimpleScenario.node[17].nic.mac1609_4 SNIRLostPackets 86
scalar SimpleScenario.node[17].nic.mac1609_4 RXTXLostPackets 5
scalar SimpleScenario.node[17].nic.mac1609_4 TotalLostPackets 91
scalar SimpleScenario.node[17].nic.mac1609_4 DroppedPacketsInMac 0
scalar SimpleScenario.node[17].nic.mac1609_4 TooLittleTime 0
scalar SimpleScenario.node[17].nic.mac1609_4 TimesIntoBackoff 2
scalar SimpleScenario.node[17].nic.mac1609_4 SlotsBackoff 25
scalar SimpleScenario.node[17].nic.mac1609_4 NumInternalContention 0
scalar SimpleScenario.node[17].nic.mac1609_4 totalBusyTime 0.002866
scalar SimpleScenario.node[18].appl generatedWSMs 2
scalar SimpleScenario.node[18].appl receivedWSMs 0
scalar SimpleScenario.node[18].appl generatedBSMs 3
scalar SimpleScenario.node[18].appl receivedBSMs 4
scalar SimpleScenario.node[18].nic.phy80211p busyTime 1.3822729744426
scalar SimpleScenario.node[18].nic.mac1609_4 ReceivedUnicastPackets 0
scalar SimpleScenario.node[18].nic.mac1609_4 ReceivedBroadcasts 4
scalar SimpleScenario.node[18].nic.mac1609_4 SentPackets 1
scalar SimpleScenario.node[18].nic.mac1609_4 SentAcknowledgements 0
scalar SimpleScenario.node[18].nic.mac1609_4 SNIRLostPackets 86
scalar SimpleScenario.node[18].nic.mac1609_4 RXTXLostPackets 6
scalar SimpleScenario.node[18].nic.mac1609_4 TotalLostPackets 92
scalar SimpleScenario.node[18].nic.mac1609_4 DroppedPacketsInMac 0
scalar SimpleScenario.node[18].nic.mac1609_4 TooLittleTime 0
scalar SimpleScenario.node[18].nic.mac1609_4 TimesIntoBackoff 2
scalar SimpleScenario.node[18].nic.mac1609_4 SlotsBackoff 20
scalar SimpleScenario.node[18].nic.mac1609_4 NumInternalContention 0
scalar SimpleScenario.node[18].nic.mac1609_4 totalBusyTime 0.002865
scalar SimpleScenario.node[19].appl generatedWSMs 2
scalar SimpleScenario.node[19].appl receivedWSMs 0
scalar SimpleScenario.node[19].appl generatedBSMs 2
scalar SimpleScenario.node[19].appl receivedBSMs 4
scalar SimpleScenario.node[19].nic.phy80211p busyTime 1.410549211528
scalar SimpleScenario.node[19].nic.mac1609_4 ReceivedUnicastPackets 0
scalar SimpleScenario.node[19].nic.mac1609_4 ReceivedBroadcasts 4
scalar SimpleScenario.node[19].nic.mac1609_4 SentPackets 1
scalar SimpleScenario.node[19].nic.mac1609_4 SentAcknowledgements 0
scalar SimpleScenario.node[19].nic.mac1609_4 SNIRLostPackets 88
scalar SimpleScenario.node[19].nic.mac1609_4 RXTXLostPackets 4
scalar SimpleScenario.node[19].nic.mac1609_4 TotalLostPackets 92
scalar SimpleScenario.node[19].nic.mac1609_4 DroppedPacketsInMac 0
scalar SimpleScenario.node[19].nic.mac1609_4 TooLittleTime 0
scalar SimpleScenario.node[19].nic.mac1609_4 TimesIntoBackoff 1
scalar SimpleScenario.node[19].nic.mac1609_4 SlotsBackoff 5
scalar SimpleScenario.node[19].nic.mac1609_4 NumInternalContention 0
scalar SimpleScenario.node[19].nic.mac1609_4 totalBusyTime 0.002865
scalar SimpleScenario.node[20].appl generatedWSMs 2
scalar SimpleScenario.node[20].appl receivedWSMs 0
scalar SimpleScenario.node[20].appl generatedBSMs 2
scalar SimpleScenario.node[20].appl receivedBSMs 4
scalar SimpleScenario.node[20].nic.phy80211p busyTime 1.4834148994018
scalar SimpleScenario.node[20].nic.mac1609_4 ReceivedUnicastPackets 0
scalar SimpleScenario.node[20].nic.mac1609_4 ReceivedBroadcasts 4
scalar SimpleScenario.node[20].nic.mac1609_4 SentPackets 0
scalar SimpleScenario.node[20].nic.mac1609_4 SentAcknowledgements 0
scalar SimpleScenario.node[20].nic.mac1609_4 SNIRLostPackets 93
scalar SimpleScenario.node[20].nic.mac1609_4 RXTXLostPackets 0
scalar SimpleScenario.node[20].nic.mac1609_4 TotalLostPackets 93
scalar SimpleScenario.node[20].nic.mac1609_4 DroppedPacketsInMac 0
scalar SimpleScenario.node[20].nic.mac1609_4 TooLittleTime 0
scalar SimpleScenario.node[20].nic.mac1609_4 TimesIntoBackoff 0
scalar SimpleScenario.node[20].nic.mac1609_4 SlotsBackoff 0
scalar SimpleScenario.node[20].nic.mac1609_4 NumInternalContention 0
scalar SimpleScenario.node[20].nic.mac1609_4 totalBusyTime 0.002864
scalar SimpleScenario.node[21].appl generatedWSMs 2
scalar SimpleScenario.node[21].appl receivedWSMs 0
scalar SimpleScenario.node[21].appl generatedBSMs 2
scalar SimpleScenario.node[21].appl receivedBSMs 4
scalar SimpleScenario.node[21].nic.phy80211p busyTime 1.3757476889614
scalar SimpleScenario.node[21].nic.mac1609_4 ReceivedUnicastPackets 0
scalar SimpleScenario.node[21].nic.mac1609_4 ReceivedBroadcasts 4
scalar SimpleScenario.node[21].nic.mac1609_4 SentPackets 1
scalar SimpleScenario.node[21].nic.mac1609_4 SentAcknowledgements 0
scalar SimpleScenario.node[21].nic.mac1609_4 SNIRLostPackets 86
scalar SimpleScenario.node[21].nic.mac1609_4 RXTXLostPackets 6
scalar SimpleScenario.node[21].nic.mac1609_4 TotalLostPackets 92
scalar SimpleScenario.node[21].nic.mac1609_4 DroppedPacketsInMac 0
scalar SimpleScenario.node[21].nic.mac1609_4 TooLittleTime 0
scalar SimpleScenario.node[21].nic.mac1609_4 TimesIntoBackoff 1
scalar SimpleScenario.node[21].nic.mac1609_4 SlotsBackoff 6
scalar SimpleScenario.node[21].nic.mac1609_4 NumInternalContention 0
scalar SimpleScenario.node[21].nic.mac1609_4 totalBusyTime 0.002865
scalar SimpleScenario.node[22].appl generatedWSMs 2
scalar SimpleScenario.node[22].appl receivedWSMs 0
scalar SimpleScenario.node[22].appl generatedBSMs 2
scalar SimpleScenario.node[22].appl receivedBSMs 4
scalar SimpleScenario.node[22].nic.phy80211p busyTime 1.2224034801523
scalar SimpleScenario.node[22].nic.mac1609_4 ReceivedUnicastPackets 0
scalar SimpleScenario.node[22].nic.mac1609_4 ReceivedBroadcasts 4
scalar SimpleScenario.node[22].nic.mac1609_4 SentPackets 3
scalar SimpleScenario.node[22].nic.mac1609_4 SentAcknowledgements 0
scalar SimpleScenario.node[22].nic.mac1609_4 SNIRLostPackets 75
scalar SimpleScenario.node[22].nic.mac1609_4 RXTXLostPackets 15
scalar SimpleScenario.node[22].nic.mac1609_4 TotalLostPackets 90
scalar SimpleScenario.node[22].nic.mac1609_4 DroppedPacketsInMac 0
scalar SimpleScenario.node[22].nic.mac1609_4 TooLittleTime 0
scalar SimpleScenario.node[22].nic.mac1609_4 TimesIntoBackoff 3
scalar SimpleScenario.node[22].nic.mac1609_4 SlotsBackoff 19
scalar SimpleScenario.node[22].nic.mac1609_4 NumInternalContention 0
scalar SimpleScenario.node[22].nic.mac1609_4 totalBusyTime 0.002867
scalar SimpleScenario.node[23].appl generatedWSMs 2
scalar SimpleScenario.node[23].appl receivedWSMs 0
scalar SimpleScenario.node[23].appl generatedBSMs 2
scalar SimpleScenario.node[23].appl receivedBSMs 4
scalar SimpleScenario.node[23].nic.phy80211p busyTime 1.4834148994018
scalar SimpleScenario.node[23].nic.mac1609_4 ReceivedUnicastPackets 0
scalar SimpleScenario.node[23].nic.mac1609_4 ReceivedBroadcasts 4
scalar SimpleScenario.node[23].nic.mac1609_4 SentPackets 0
scalar SimpleScenario.node[23].nic.mac1609_4 SentAcknowledgements 0
scalar SimpleScenario.node[23].nic.mac1609_4 SNIRLostPackets 93
scalar SimpleScenario.node[23].nic.mac1609_4 RXTXLostPackets 0
scalar SimpleScenario.node[23].nic.mac1609_4 TotalLostPackets 93
scalar SimpleScenario.node[23].nic.mac1609_4 DroppedPacketsInMac 0
scalar SimpleScenario.node[23].nic.mac1609_4 TooLittleTime 0
scalar SimpleScenario.node[23].nic.mac1609_4 TimesIntoBackoff 1
scalar SimpleScenario.node[23].nic.mac1609_4 SlotsBackoff 11
scalar SimpleScenario.node[23].nic.mac1609_4 NumInternalContention 0
scalar SimpleScenario.node[23].nic.mac1609_4 totalBusyTime 0.002864
scalar SimpleScenario.node[24].appl generatedWSMs 2
scalar SimpleScenario.node[24].appl receivedWSMs 0
scalar SimpleScenario.node[24].appl generatedBSMs 2
scalar SimpleScenario.node[24].appl receivedBSMs 4
scalar SimpleScenario.node[24].nic.phy80211p busyTime 1.4834148994018
scalar SimpleScenario.node[24].nic.mac1609_4 ReceivedUnicastPackets 0
scalar SimpleScenario.node[24].nic.mac1609_4 ReceivedBroadcasts 4
scalar SimpleScenario.node[24].nic.mac1609_4 SentPackets 0
scalar SimpleScenario.node[24].nic.mac1609_4 SentAcknowledgements 0
scalar SimpleScenario.node[24].nic.mac1609_4 SNIRLostPackets 93
scalar SimpleScenario.node[24].nic.mac1609_4 RXTXLostPackets 0
scalar SimpleScenario.node[24].nic.mac1609_4 TotalLostPackets 93
scalar SimpleScenario.node[24].nic.mac1609_4 DroppedPacketsInMac 0
scalar SimpleScenario.node[24].nic.mac1609_4 TooLittleTime 0
scalar SimpleScenario.node[24].nic.mac1609_4 TimesIntoBackoff 0
scalar SimpleScenario.node[24].nic.mac1609_4 SlotsBackoff 0
scalar SimpleScenario.node[24].nic.mac1609_4 NumInternalContention 0
scalar SimpleScenario.node[24].nic.mac1609_4 totalBusyTime 0.002864
scalar SimpleScenario.node[25].appl generatedWSMs 2
scalar SimpleScenario.node[25].appl receivedWSMs 0
scalar SimpleScenario.node[25].appl generatedBSMs 2
scalar SimpleScenario.node[25].appl receivedBSMs 4
scalar SimpleScenario.node[25].nic.phy80211p busyTime 1.3942359978249
scalar SimpleScenario.node[25].nic.mac1609_4 ReceivedUnicastPackets 0
scalar SimpleScenario.node[25].nic.mac1609_4 ReceivedBroadcasts 4
scalar SimpleScenario.node[25].nic.mac1609_4 SentPackets 1
scalar SimpleScenario.node[25].nic.mac1609_4 SentAcknowledgements 0
scalar SimpleScenario.node[25].nic.mac1609_4 SNIRLostPackets 87
scalar SimpleScenario.node[25].nic.mac1609_4 RXTXLostPackets 5
scalar SimpleScenario.node[25].nic.mac1609_4 TotalLostPackets 92
scalar SimpleScenario.node[25].nic.mac1609_4 DroppedPacketsInMac 0
scalar SimpleScenario.node[25].nic.mac1609_4 TooLittleTime 0
scalar SimpleScenario.node[25].nic.mac1609_4 TimesIntoBackoff 1
scalar SimpleScenario.node[25].nic.mac1609_4 SlotsBackoff 6
scalar SimpleScenario.node[25].nic.mac1609_4 NumInternalContention 0
scalar SimpleScenario.node[25].nic.mac1609_4 totalBusyTime 0.002865
scalar SimpleScenario.node[26].appl generatedWSMs 2
scalar SimpleScenario.node[26].appl receivedWSMs 0
scalar SimpleScenario.node[26].appl generatedBSMs 2
scalar SimpleScenario.node[26].appl receivedBSMs 4
scalar SimpleScenario.node[26].nic.phy80211p busyTime 1.4834148994018
scalar SimpleScenario.node[26].nic.mac1609_4 ReceivedUnicastPackets 0
scalar SimpleScenario.node[26].nic.mac1609_4 ReceivedBroadcasts 4
scalar SimpleScenario.node[26].nic.mac1609_4 SentPackets 0
scalar SimpleScenario.node[26].nic.mac1609_4 SentAcknowledgements 0
scalar SimpleScenario.node[26].nic.mac1609_4 SNIRLostPackets 93
scalar SimpleScenario.node[26].nic.mac1609_4 RXTXLostPackets 0
scalar SimpleScenario.node[26].nic.mac1609_4 TotalLostPackets 93
scalar SimpleScenario.node[26].nic.mac1609_4 DroppedPacketsInMac 0
scalar SimpleScenario.node[26].nic.mac1609_4 TooLittleTime 0
scalar SimpleScenario.node[26].nic.mac1609_4 TimesIntoBackoff 0
scalar SimpleScenario.node[26].nic.mac1609_4 SlotsBackoff 0
scalar SimpleScenario.node[26].nic.mac1609_4 NumInternalContention 0
scalar SimpleScenario.node[26].nic.mac1609_4 totalBusyTime 0.002864
scalar SimpleScenario.node[27].appl generatedWSMs 2
scalar SimpleScenario.node[27].appl receivedWSMs 0
scalar SimpleScenario.node[27].appl generatedBSMs 2
scalar SimpleScenario.node[27].appl receivedBSMs 4
scalar SimpleScenario.node[27].nic.phy80211p busyTime 1.4834148994018
scalar SimpleScenario.node[27].nic.mac1609_4 ReceivedUnicastPackets 0
scalar SimpleScenario.node[27].nic.mac1609_4 ReceivedBroadcasts 4
scalar SimpleScenario.node[27].nic.mac1609_4 SentPackets 0
scalar SimpleScenario.node[27].nic.mac1609_4 SentAcknowledgements 0
scalar SimpleScenario.node[27].nic.mac1609_4 SNIRLostPackets 93
scalar SimpleScenario.node[27].nic.mac1609_4 RXTXLostPackets 0
scalar SimpleScenario.node[27].nic.mac1609_4 TotalLostPackets 93
scalar SimpleScenario.node[27].nic.mac1609_4 DroppedPacketsInMac 0
scalar SimpleScenario.node[27].nic.mac1609_4 TooLittleTime 0
scalar SimpleScenario.node[27].nic.mac1609_4 TimesIntoBackoff 1
scalar SimpleScenario.node[27].nic.mac1609_4 SlotsBackoff 15
scalar SimpleScenario.node[27].nic.mac1609_4 NumInternalContention 0
scalar SimpleScenario.node[27].nic.mac1609_4 totalBusyTime 0.002864
scalar SimpleScenario.node[28].appl generatedWSMs 2
scalar SimpleScenario.node[28].appl receivedWSMs 0
scalar SimpleScenario.node[28].appl generatedBSMs 2
scalar SimpleScenario.node[28].appl receivedBSMs 4
scalar SimpleScenario.node[28].nic.phy80211p busyTime 1.4834148994018
scalar SimpleScenario.node[28].nic.mac1609_4 ReceivedUnicastPackets 0
scalar SimpleScenario.node[28].nic.mac1609_4 ReceivedBroadcasts 4
scalar SimpleScenario.node[28].nic.mac1609_4 SentPackets 0
scalar SimpleScenario.node[28].nic.mac1609_4 SentAcknowledgements 0
scalar SimpleScenario.node[28].nic.mac1609_4 SNIRLostPackets 93
scalar SimpleScenario.node[28].nic.mac1609_4 RXTXLostPackets 0
scalar SimpleScenario.node[28].nic.mac1609_4 TotalLostPackets 93
scalar SimpleScenario.node[28].nic.mac1609_4 DroppedPacketsInMac 0
scalar SimpleScenario.node[28].nic.mac1609_4 TooLittleTime 0
scalar SimpleScenario.node[28].nic.mac1609_4 TimesIntoBackoff 0
scalar SimpleScenario.node[28].nic.mac1609_4 SlotsBackoff 0
scalar SimpleScenario.node[28].nic.mac1609_4 NumInternalContention 0
scalar SimpleScenario.node[28].nic.mac1609_4 totalBusyTime 0.002864
scalar SimpleScenario.node[29].appl generatedWSMs 2
scalar SimpleScenario.node[29].appl receivedWSMs 0
scalar SimpleScenario.node[29].appl generatedBSMs 2
scalar SimpleScenario.node[29].appl receivedBSMs 4
scalar SimpleScenario.node[29].nic.phy80211p busyTime 1.3942359978249
scalar SimpleScenario.node[29].nic.mac1609_4 ReceivedUnicastPackets 0
scalar SimpleScenario.node[29].nic.mac1609_4 ReceivedBroadcasts 4
scalar SimpleScenario.node[29].nic.mac1609_4 SentPackets 1
scalar SimpleScenario.node[29].nic.mac1609_4 SentAcknowledgements 0
scalar SimpleScenario.node[29].nic.mac1609_4 SNIRLostPackets 87
scalar SimpleScenario.node[29].nic.mac1609_4 RXTXLostPackets 5
scalar SimpleScenario.node[29].nic.mac1609_4 TotalLostPackets 92
scalar SimpleScenario.node[29].nic.mac1609_4 DroppedPacketsInMac 0
scalar SimpleScenario.node[29].nic.mac1609_4 TooLittleTime 0
scalar SimpleScenario.node[29].nic.mac1609_4 TimesIntoBackoff 1
scalar SimpleScenario.node[29].nic.mac1609_4 SlotsBackoff 8
scalar SimpleScenario.node[29].nic.mac1609_4 NumInternalContention 0
scalar SimpleScenario.node[29].nic.mac1609_4 totalBusyTime 0.002865
scalar SimpleScenario.node[30].appl generatedWSMs 2
scalar SimpleScenario.node[30].appl receivedWSMs 0
scalar SimpleScenario.node[30].appl generatedBSMs 2
scalar SimpleScenario.node[30].appl receivedBSMs 4
scalar SimpleScenario.node[30].nic.phy80211p busyTime 1.4834148994018
scalar SimpleScenario.node[30].nic.mac1609_4 ReceivedUnicastPackets 0
scalar SimpleScenario.node[30].nic.mac1609_4 ReceivedBroadcasts 4
scalar SimpleScenario.node[30].nic.mac1609_4 SentPackets 0
scalar SimpleScenario.node[30].nic.mac1609_4 SentAcknowledgements 0
scalar SimpleScenario.node[30].nic.mac1609_4 SNIRLostPackets 93
scalar SimpleScenario.node[30].nic.mac1609_4 RXTXLostPackets 0
scalar SimpleScenario.node[30].nic.mac1609_4 TotalLostPackets 93
scalar SimpleScenario.node[30].nic.mac1609_4 DroppedPacketsInMac 0
scalar SimpleScenario.node[30].nic.mac1609_4 TooLittleTime 0
scalar SimpleScenario.node[30].nic.mac1609_4 TimesIntoBackoff 0
scalar SimpleScenario.node[30].nic.mac1609_4 SlotsBackoff 0
scalar SimpleScenario.node[30].nic.mac1609_4 NumInternalContention 0
scalar SimpleScenario.node[30].nic.mac1609_4 totalBusyTime 0.002864
scalar SimpleScenario.node[31].appl generatedWSMs 2
scalar SimpleScenario.node[31].appl receivedWSMs 0
scalar SimpleScenario.node[31].appl generatedBSMs 2
scalar SimpleScenario.node[31].appl receivedBSMs 4
scalar SimpleScenario.node[31].nic.phy80211p busyTime 1.2463295269168
scalar SimpleScenario.node[31].nic.mac1609_4 ReceivedUnicastPackets 0
scalar SimpleScenario.node[31].nic.mac1609_4 ReceivedBroadcasts 4
scalar SimpleScenario.node[31].nic.mac1609_4 SentPackets 3
scalar SimpleScenario.node[31].nic.mac1609_4 SentAcknowledgements 0
scalar SimpleScenario.node[31].nic.mac1609_4 SNIRLostPackets 77
scalar SimpleScenario.node[31].nic.mac1609_4 RXTXLostPackets 13
scalar SimpleScenario.node[31].nic.mac1609_4 TotalLostPackets 90
scalar SimpleScenario.node[31].nic.mac1609_4 DroppedPacketsInMac 0
scalar SimpleScenario.node[31].nic.mac1609_4 TooLittleTime 0
scalar SimpleScenario.node[31].nic.mac1609_4 TimesIntoBackoff 3
scalar SimpleScenario.node[31].nic.mac1609_4 SlotsBackoff 19
scalar SimpleScenario.node[31].nic.mac1609_4 NumInternalContention 0
scalar SimpleScenario.node[31].nic.mac1609_4 totalBusyTime 0.002867
scalar SimpleScenario.node[32].appl generatedWSMs 2
scalar SimpleScenario.node[32].appl receivedWSMs 0
scalar SimpleScenario.node[32].appl generatedBSMs 2
scalar SimpleScenario.node[32].appl receivedBSMs 4
scalar SimpleScenario.node[32].nic.phy80211p busyTime 1.4834148994018
scalar SimpleScenario.node[32].nic.mac1609_4 ReceivedUnicastPackets 0
scalar SimpleScenario.node[32].nic.mac1609_4 ReceivedBroadcasts 4
scalar SimpleScenario.node[32].nic.mac1609_4 SentPackets 0
scalar SimpleScenario.node[32].nic.mac1609_4 SentAcknowledgements 0
scalar SimpleScenario.node[32].nic.mac1609_4 SNIRLostPackets 93
scalar SimpleScenario.node[32].nic.mac1609_4 RXTXLostPackets 0
scalar SimpleScenario.node[32].nic.mac1609_4 TotalLostPackets 93
scalar SimpleScenario.node[32].nic.mac1609_4 DroppedPacketsInMac 0
scalar SimpleScenario.node[32].nic.mac1609_4 TooLittleTime 0
scalar SimpleScenario.node[32].nic.mac1609_4 TimesIntoBackoff 0
scalar SimpleScenario.node[32].nic.mac1609_4 SlotsBackoff 0
scalar SimpleScenario.node[32].nic.mac1609_4 NumInternalContention 0
scalar SimpleScenario.node[32].nic.mac1609_4 totalBusyTime 0.002864
scalar SimpleScenario.node[33].appl generatedWSMs 2
scalar SimpleScenario.node[33].appl receivedWSMs 0
scalar SimpleScenario.node[33].appl generatedBSMs 2
scalar SimpleScenario.node[33].appl receivedBSMs 3
scalar SimpleScenario.node[33].nic.phy80211p busyTime 1.4692767808592
scalar SimpleScenario.node[33].nic.mac1609_4 ReceivedUnicastPackets 0
scalar SimpleScenario.node[33].nic.mac1609_4 ReceivedBroadcasts 3
scalar SimpleScenario.node[33].nic.mac1609_4 SentPackets 1
scalar SimpleScenario.node[33].nic.mac1609_4 SentAcknowledgements 0
scalar SimpleScenario.node[33].nic.mac1609_4 SNIRLostPackets 93
scalar SimpleScenario.node[33].nic.mac1609_4 RXTXLostPackets 0
scalar SimpleScenario.node[33].nic.mac1609_4 TotalLostPackets 93
scalar SimpleScenario.node[33].nic.mac1609_4 DroppedPacketsInMac 0
scalar SimpleScenario.node[33].nic.mac1609_4 TooLittleTime 0
scalar SimpleScenario.node[33].nic.mac1609_4 TimesIntoBackoff 2
scalar SimpleScenario.node[33].nic.mac1609_4 SlotsBackoff 2
scalar SimpleScenario.node[33].nic.mac1609_4 NumInternalContention 0
scalar SimpleScenario.node[33].nic.mac1609_4 totalBusyTime 0.002865
scalar SimpleScenario.node[34].appl generatedWSMs 2
scalar SimpleScenario.node[34].appl receivedWSMs 0
scalar SimpleScenario.node[34].appl generatedBSMs 2
scalar SimpleScenario.node[34].appl receivedBSMs 4
scalar SimpleScenario.node[34].nic.phy80211p busyTime 1.4834148994018
scalar SimpleScenario.node[34].nic.mac1609_4 ReceivedUnicastPackets 0
scalar SimpleScenario.node[34].nic.mac1609_4 ReceivedBroadcasts 4
scalar SimpleScenario.node[34].nic.mac1609_4 SentPackets 0
scalar SimpleScenario.node[34].nic.mac1609_4 SentAcknowledgements 0
scalar SimpleScenario.node[34].nic.mac1609_4 SNIRLostPackets 93
scalar SimpleScenario.node[34].nic.mac1609_4 RXTXLostPackets 0
scalar SimpleScenario.node[34].nic.mac1609_4 TotalLostPackets 93
scalar SimpleScenario.node[34].nic.mac1609_4 DroppedPacketsInMac 0
scalar SimpleScenario.node[34].nic.mac1609_4 TooLittleTime 0
scalar SimpleScenario.node[34].nic.mac1609_4 TimesIntoBackoff 0
scalar SimpleScenario.node[34].nic.mac1609_4 SlotsBackoff 0
scalar SimpleScenario.node[34].nic.mac1609_4 NumInternalContention 0
scalar SimpleScenario.node[34].nic.mac1609_4 totalBusyTime 0.002864
scalar SimpleScenario.node[35].appl generatedWSMs 2
scalar SimpleScenario.node[35].appl receivedWSMs 0
scalar SimpleScenario.node[35].appl generatedBSMs 2
scalar SimpleScenario.node[35].appl receivedBSMs 4
scalar SimpleScenario.node[35].nic.phy80211p busyTime 1.4834148994018
scalar SimpleScenario.node[35].nic.mac1609_4 ReceivedUnicastPackets 0
scalar SimpleScenario.node[35].nic.mac1609_4 ReceivedBroadcasts 4
scalar SimpleScenario.node[35].nic.mac1609_4 SentPackets 0
scalar SimpleScenario.node[35].nic.mac1609_4 SentAcknowledgements 0
scalar SimpleScenario.node[35].nic.mac1609_4 SNIRLostPackets 93
scalar SimpleScenario.node[35].nic.mac1609_4 RXTXLostPackets 0
scalar SimpleScenario.node[35].nic.mac1609_4 TotalLostPackets 93
scalar SimpleScenario.node[35].nic.mac1609_4 DroppedPacketsInMac 0
scalar SimpleScenario.node[35].nic.mac1609_4 TooLittleTime 0
scalar SimpleScenario.node[35].nic.mac1609_4 TimesIntoBackoff 0
scalar SimpleScenario.node[35].nic.mac1609_4 SlotsBackoff 0
scalar SimpleScenario.node[35].nic.mac1609_4 NumInternalContention 0
scalar SimpleScenario.node[35].nic.mac1609_4 totalBusyTime 0.002864
scalar SimpleScenario.node[36].appl generatedWSMs 2
scalar SimpleScenario.node[36].appl receivedWSMs 0
scalar SimpleScenario.node[36].appl generatedBSMs 2
scalar SimpleScenario.node[36].appl receivedBSMs 4
scalar SimpleScenario.node[36].nic.phy80211p busyTime 1.4834148994018
scalar SimpleScenario.node[36].nic.mac1609_4 ReceivedUnicastPackets 0
scalar SimpleScenario.node[36].nic.mac1609_4 ReceivedBroadcasts 4
scalar SimpleScenario.node[36].nic.mac1609_4 SentPackets 0
scalar SimpleScenario.node[36].nic.mac1609_4 SentAcknowledgements 0
scalar SimpleScenario.node[36].nic.mac1609_4 SNIRLostPackets 93
scalar SimpleScenario.node[36].nic.mac1609_4 RXTXLostPackets 0
scalar SimpleScenario.node[36].nic.mac1609_4 TotalLostPackets 93
scalar SimpleScenario.node[36].nic.mac1609_4 DroppedPacketsInMac 0
scalar SimpleScenario.node[36].nic.mac1609_4 TooLittleTime 0
scalar SimpleScenario.node[36].nic.mac1609_4 TimesIntoBackoff 0
scalar SimpleScenario.node[36].nic.mac1609_4 SlotsBackoff 0
scalar SimpleScenario.node[36].nic.mac1609_4 NumInternalContention 0
scalar SimpleScenario.node[36].nic.mac1609_4 totalBusyTime 0.002864
scalar SimpleScenario.node[37].appl generatedWSMs 2
scalar SimpleScenario.node[37].appl receivedWSMs 0
scalar SimpleScenario.node[37].appl generatedBSMs 2
scalar SimpleScenario.node[37].appl receivedBSMs 4
scalar SimpleScenario.node[37].nic.phy80211p busyTime 1.4834148994018
scalar SimpleScenario.node[37].nic.mac1609_4 ReceivedUnicastPackets 0
scalar SimpleScenario.node[37].nic.mac1609_4 ReceivedBroadcasts 4
scalar SimpleScenario.node[37].nic.mac1609_4 SentPackets 0
scalar SimpleScenario.node[37].nic.mac1609_4 SentAcknowledgements 0
scalar SimpleScenario.node[37].nic.mac1609_4 SNIRLostPackets 93
scalar SimpleScenario.node[37].nic.mac1609_4 RXTXLostPackets 0
scalar SimpleScenario.node[37].nic.mac1609_4 TotalLostPackets 93
scalar SimpleScenario.node[37].nic.mac1609_4 DroppedPacketsInMac 0
scalar SimpleScenario.node[37].nic.mac1609_4 TooLittleTime 0
scalar SimpleScenario.node[37].nic.mac1609_4 TimesIntoBackoff 0
scalar SimpleScenario.node[37].nic.mac1609_4 SlotsBackoff 0
scalar SimpleScenario.node[37].nic.mac1609_4 NumInternalContention 0
scalar SimpleScenario.node[37].nic.mac1609_4 totalBusyTime 0.002864
scalar SimpleScenario.node[38].appl generatedWSMs 1
scalar SimpleScenario.node[38].appl receivedWSMs 0
scalar SimpleScenario.node[38].appl generatedBSMs 2
scalar SimpleScenario.node[38].appl receivedBSMs 3
scalar SimpleScenario.node[38].nic.phy80211p busyTime 1.3681348558999
scalar SimpleScenario.node[38].nic.mac1609_4 ReceivedUnicastPackets 0
scalar SimpleScenario.node[38].nic.mac1609_4 ReceivedBroadcasts 3
scalar SimpleScenario.node[38].nic.mac1609_4 SentPackets 3
scalar SimpleScenario.node[38].nic.mac1609_4 SentAcknowledgements 0
scalar SimpleScenario.node[38].nic.mac1609_4 SNIRLostPackets 86
scalar SimpleScenario.node[38].nic.mac1609_4 RXTXLostPackets 5
scalar SimpleScenario.node[38].nic.mac1609_4 TotalLostPackets 91
scalar SimpleScenario.node[38].nic.mac1609_4 DroppedPacketsInMac 0
scalar SimpleScenario.node[38].nic.mac1609_4 TooLittleTime 0
scalar SimpleScenario.node[38].nic.mac1609_4 TimesIntoBackoff 3
scalar SimpleScenario.node[38].nic.mac1609_4 SlotsBackoff 7
scalar SimpleScenario.node[38].nic.mac1609_4 NumInternalContention 0
scalar SimpleScenario.node[38].nic.mac1609_4 totalBusyTime 0.002867
scalar SimpleScenario.node[39].appl generatedWSMs 2
scalar SimpleScenario.node[39].appl receivedWSMs 0
scalar SimpleScenario.node[39].appl generatedBSMs 2
scalar SimpleScenario.node[39].appl receivedBSMs 4
scalar SimpleScenario.node[39].nic.phy80211p busyTime 1.3398586188146
scalar SimpleScenario.node[39].nic.mac1609_4 ReceivedUnicastPackets 0
scalar SimpleScenario.node[39].nic.mac1609_4 ReceivedBroadcasts 4
scalar SimpleScenario.node[39].nic.mac1609_4 SentPackets 2
scalar SimpleScenario.node[39].nic.mac1609_4 SentAcknowledgements 0
scalar SimpleScenario.node[39].nic.mac1609_4 SNIRLostPackets 83
scalar SimpleScenario.node[39].nic.mac1609_4 RXTXLostPackets 8
scalar SimpleScenario.node[39].nic.mac1609_4 TotalLostPackets 91
scalar SimpleScenario.node[39].nic.mac1609_4 DroppedPacketsInMac 0
scalar SimpleScenario.node[39].nic.mac1609_4 TooLittleTime 0
scalar SimpleScenario.node[39].nic.mac1609_4 TimesIntoBackoff 2
scalar SimpleScenario.node[39].nic.mac1609_4 SlotsBackoff 26
scalar SimpleScenario.node[39].nic.mac1609_4 NumInternalContention 0
scalar SimpleScenario.node[39].nic.mac1609_4 totalBusyTime 0.002866
scalar SimpleScenario.node[40].appl generatedWSMs 2
scalar SimpleScenario.node[40].appl receivedWSMs 0
scalar SimpleScenario.node[40].appl generatedBSMs 2
scalar SimpleScenario.node[40].appl receivedBSMs 4
scalar SimpleScenario.node[40].nic.phy80211p busyTime 1.4834148994018
scalar SimpleScenario.node[40].nic.mac1609_4 ReceivedUnicastPackets 0
scalar SimpleScenario.node[40].nic.mac1609_4 ReceivedBroadcasts 4
scalar SimpleScenario.node[40].nic.mac1609_4 SentPackets 0
scalar SimpleScenario.node[40].nic.mac1609_4 SentAcknowledgements 0
scalar SimpleScenario.node[40].nic.mac1609_4 SNIRLostPackets 93
scalar SimpleScenario.node[40].nic.mac1609_4 RXTXLostPackets 0
scalar SimpleScenario.node[40].nic.mac1609_4 TotalLostPackets 93
scalar SimpleScenario.node[40].nic.mac1609_4 DroppedPacketsInMac 0
scalar SimpleScenario.node[40].nic.mac1609_4 TooLittleTime 0
scalar SimpleScenario.node[40].nic.mac1609_4 TimesIntoBackoff 1
scalar SimpleScenario.node[40].nic.mac1609_4 SlotsBackoff 10
scalar SimpleScenario.node[40].nic.mac1609_4 NumInternalContention 0
scalar SimpleScenario.node[40].nic.mac1609_4 totalBusyTime 0.002864
scalar SimpleScenario.node[41].appl generatedWSMs 2
scalar SimpleScenario.node[41].appl receivedWSMs 0
scalar SimpleScenario.node[41].appl generatedBSMs 3
scalar SimpleScenario.node[41].appl receivedBSMs 4
scalar SimpleScenario.node[41].nic.phy80211p busyTime 1.3235454051115
scalar SimpleScenario.node[41].nic.mac1609_4 ReceivedUnicastPackets 0
scalar SimpleScenario.node[41].nic.mac1609_4 ReceivedBroadcasts 4
scalar SimpleScenario.node[41].nic.mac1609_4 SentPackets 2
scalar SimpleScenario.node[41].nic.mac1609_4 SentAcknowledgements 0
scalar SimpleScenario.node[41].nic.mac1609_4 SNIRLostPackets 87
scalar SimpleScenario.node[41].nic.mac1609_4 RXTXLostPackets 5
scalar SimpleScenario.node[41].nic.mac1609_4 TotalLostPackets 92
scalar SimpleScenario.node[41].nic.mac1609_4 DroppedPacketsInMac 0
scalar SimpleScenario.node[41].nic.mac1609_4 TooLittleTime 0
scalar SimpleScenario.node[41].nic.mac1609_4 TimesIntoBackoff 1
scalar SimpleScenario.node[41].nic.mac1609_4 SlotsBackoff 8
scalar SimpleScenario.node[41].nic.mac1609_4 NumInternalContention 0
scalar SimpleScenario.node[41].nic.mac1609_4 totalBusyTime 0.002865
scalar SimpleScenario.node[42].appl generatedWSMs 2
scalar SimpleScenario.node[42].appl receivedWSMs 0
scalar SimpleScenario.node[42].appl generatedBSMs 2
scalar SimpleScenario.node[42].appl receivedBSMs 4
scalar SimpleScenario.node[42].nic.phy80211p busyTime 1.2180532898314
scalar SimpleScenario.node[42].nic.mac1609_4 ReceivedUnicastPackets 0
scalar SimpleScenario.node[42].nic.mac1609_4 ReceivedBroadcasts 4
scalar SimpleScenario.node[42].nic.mac1609_4 SentPackets 3
scalar SimpleScenario.node[42].nic.mac1609_4 SentAcknowledgements 0
scalar SimpleScenario.node[42].nic.mac1609_4 SNIRLostPackets 75
scalar SimpleScenario.node[42].nic.mac1609_4 RXTXLostPackets 15
scalar SimpleScenario.node[42].nic.mac1609_4 TotalLostPackets 90
scalar SimpleScenario.node[42].nic.mac1609_4 DroppedPacketsInMac 0
scalar SimpleScenario.node[42].nic.mac1609_4 TooLittleTime 0
scalar SimpleScenario.node[42].nic.mac1609_4 TimesIntoBackoff 3
scalar SimpleScenario.node[42].nic.mac1609_4 SlotsBackoff 16
scalar SimpleScenario.node[42].nic.mac1609_4 NumInternalContention 0
scalar SimpleScenario.node[42].nic.mac1609_4 totalBusyTime 0.002867
scalar SimpleScenario.node[43].appl generatedWSMs 2
scalar SimpleScenario.node[43].appl receivedWSMs 0
scalar SimpleScenario.node[43].appl generatedBSMs 2
scalar SimpleScenario.node[43].appl receivedBSMs 4
scalar SimpleScenario.node[43].nic.phy80211p busyTime 1.3942359978249
scalar SimpleScenario.node[43].nic.mac1609_4 ReceivedUnicastPackets 0
scalar SimpleScenario.node[43].nic.mac1609_4 ReceivedBroadcasts 4
scalar SimpleScenario.node[43].nic.mac1609_4 SentPackets 1
scalar SimpleScenario.node[43].nic.mac1609_4 SentAcknowledgements 0
scalar SimpleScenario.node[43].nic.mac1609_4 SNIRLostPackets 87
scalar SimpleScenario.node[43].nic.mac1609_4 RXTXLostPackets 5
scalar SimpleScenario.node[43].nic.mac1609_4 TotalLostPackets 92
scalar SimpleScenario.node[43].nic.mac1609_4 DroppedPacketsInMac 0
scalar SimpleScenario.node[43].nic.mac1609_4 TooLittleTime 0
scalar SimpleScenario.node[43].nic.mac1609_4 TimesIntoBackoff 1
scalar SimpleScenario.node[43].nic.mac1609_4 SlotsBackoff 11
scalar SimpleScenario.node[43].nic.mac1609_4 NumInternalContention 0
scalar SimpleScenario.node[43].nic.mac1609_4 totalBusyTime 0.002865
scalar SimpleScenario.node[44].appl generatedWSMs 2
scalar SimpleScenario.node[44].appl receivedWSMs 0
scalar SimpleScenario.node[44].appl generatedBSMs 2
scalar SimpleScenario.node[44].appl receivedBSMs 4
scalar SimpleScenario.node[44].nic.phy80211p busyTime 1.4268624252311
scalar SimpleScenario.node[44].nic.mac1609_4 ReceivedUnicastPackets 0
scalar SimpleScenario.node[44].nic.mac1609_4 ReceivedBroadcasts 4
scalar SimpleScenario.node[44].nic.mac1609_4 SentPackets 2
scalar SimpleScenario.node[44].nic.mac1609_4 SentAcknowledgements 0
scalar SimpleScenario.node[44].nic.mac1609_4 SNIRLostPackets 89
scalar SimpleScenario.node[44].nic.mac1609_4 RXTXLostPackets 2
scalar SimpleScenario.node[44].nic.mac1609_4 TotalLostPackets 91
scalar SimpleScenario.node[44].nic.mac1609_4 DroppedPacketsInMac 0
scalar SimpleScenario.node[44].nic.mac1609_4 TooLittleTime 0
scalar SimpleScenario.node[44].nic.mac1609_4 TimesIntoBackoff 3
scalar SimpleScenario.node[44].nic.mac1609_4 SlotsBackoff 20
scalar SimpleScenario.node[44].nic.mac1609_4 NumInternalContention 0
scalar SimpleScenario.node[44].nic.mac1609_4 totalBusyTime 0.002866
scalar SimpleScenario.node[45].appl generatedWSMs 2
scalar SimpleScenario.node[45].appl receivedWSMs 0
scalar SimpleScenario.node[45].appl generatedBSMs 2
scalar SimpleScenario.node[45].appl receivedBSMs 4
scalar SimpleScenario.node[45].nic.phy80211p busyTime 1.4834148994018
scalar SimpleScenario.node[45].nic.mac1609_4 ReceivedUnicastPackets 0
scalar SimpleScenario.node[45].nic.mac1609_4 ReceivedBroadcasts 4
scalar SimpleScenario.node[45].nic.mac1609_4 SentPackets 0
scalar SimpleScenario.node[45].nic.mac1609_4 SentAcknowledgements 0
scalar SimpleScenario.node[45].nic.mac1609_4 SNIRLostPackets 93
scalar SimpleScenario.node[45].nic.mac1609_4 RXTXLostPackets 0
scalar SimpleScenario.node[45].nic.mac1609_4 TotalLostPackets 93
scalar SimpleScenario.node[45].nic.mac1609_4 DroppedPacketsInMac 0
scalar SimpleScenario.node[45].nic.mac1609_4 TooLittleTime 0
scalar SimpleScenario.node[45].nic.mac1609_4 TimesIntoBackoff 0
scalar SimpleScenario.node[45].nic.mac1609_4 SlotsBackoff 0
scalar SimpleScenario.node[45].nic.mac1609_4 NumInternalContention 0
scalar SimpleScenario.node[45].nic.mac1609_4 totalBusyTime 0.002864
scalar SimpleScenario.node[46].appl generatedWSMs 2
scalar SimpleScenario.node[46].appl receivedWSMs 0
scalar SimpleScenario.node[46].appl generatedBSMs 3
scalar SimpleScenario.node[46].appl receivedBSMs 4
scalar SimpleScenario.node[46].nic.phy80211p busyTime 1.3757476889614
scalar SimpleScenario.node[46].nic.mac1609_4 ReceivedUnicastPackets 0
scalar SimpleScenario.node[46].nic.mac1609_4 ReceivedBroadcasts 4
scalar SimpleScenario.node[46].nic.mac1609_4 SentPackets 1
scalar SimpleScenario.node[46].nic.mac1609_4 SentAcknowledgements 0
scalar SimpleScenario.node[46].nic.mac1609_4 SNIRLostPackets 86
scalar SimpleScenario.node[46].nic.mac1609_4 RXTXLostPackets 6
scalar SimpleScenario.node[46].nic.mac1609_4 TotalLostPackets 92
scalar SimpleScenario.node[46].nic.mac1609_4 DroppedPacketsInMac 0
scalar SimpleScenario.node[46].nic.mac1609_4 TooLittleTime 0
scalar SimpleScenario.node[46].nic.mac1609_4 TimesIntoBackoff 2
scalar SimpleScenario.node[46].nic.mac1609_4 SlotsBackoff 19
scalar SimpleScenario.node[46].nic.mac1609_4 NumInternalContention 0
scalar SimpleScenario.node[46].nic.mac1609_4 totalBusyTime 0.002865
scalar SimpleScenario.node[47].appl generatedWSMs 2
scalar SimpleScenario.node[47].appl receivedWSMs 0
scalar SimpleScenario.node[47].appl generatedBSMs 2
scalar SimpleScenario.node[47].appl receivedBSMs 4
scalar SimpleScenario.node[47].nic.phy80211p busyTime 1.4834148994018
scalar SimpleScenario.node[47].nic.mac1609_4 ReceivedUnicastPackets 0
scalar SimpleScenario.node[47].nic.mac1609_4 ReceivedBroadcasts 4
scalar SimpleScenario.node[47].nic.mac1609_4 SentPackets 0
scalar SimpleScenario.node[47].nic.mac1609_4 SentAcknowledgements 0
scalar SimpleScenario.node[47].nic.mac1609_4 SNIRLostPackets 93
scalar SimpleScenario.node[47].nic.mac1609_4 RXTXLostPackets 0
scalar SimpleScenario.node[47].nic.mac1609_4 TotalLostPackets 93
scalar SimpleScenario.node[47].nic.mac1609_4 DroppedPacketsInMac 0
scalar SimpleScenario.node[47].nic.mac1609_4 TooLittleTime 0
scalar SimpleScenario.node[47].nic.mac1609_4 TimesIntoBackoff 1
scalar SimpleScenario.node[47].nic.mac1609_4 SlotsBackoff 10
scalar SimpleScenario.node[47].nic.mac1609_4 NumInternalContention 0
scalar SimpleScenario.node[47].nic.mac1609_4 totalBusyTime 0.002864
scalar SimpleScenario.node[48].appl generatedWSMs 2
scalar SimpleScenario.node[48].appl receivedWSMs 0
scalar SimpleScenario.node[48].appl generatedBSMs 2
scalar SimpleScenario.node[48].appl receivedBSMs 4
scalar SimpleScenario.node[48].nic.phy80211p busyTime 1.3659597607395
scalar SimpleScenario.node[48].nic.mac1609_4 ReceivedUnicastPackets 0
scalar SimpleScenario.node[48].nic.mac1609_4 ReceivedBroadcasts 4
scalar SimpleScenario.node[48].nic.mac1609_4 SentPackets 2
scalar SimpleScenario.node[48].nic.mac1609_4 SentAcknowledgements 0
scalar SimpleScenario.node[48].nic.mac1609_4 SNIRLostPackets 90
scalar SimpleScenario.node[48].nic.mac1609_4 RXTXLostPackets 2
scalar SimpleScenario.node[48].nic.mac1609_4 TotalLostPackets 92
scalar SimpleScenario.node[48].nic.mac1609_4 DroppedPacketsInMac 0
scalar SimpleScenario.node[48].nic.mac1609_4 TooLittleTime 0
scalar SimpleScenario.node[48].nic.mac1609_4 TimesIntoBackoff 1
scalar SimpleScenario.node[48].nic.mac1609_4 SlotsBackoff 11
scalar SimpleScenario.node[48].nic.mac1609_4 NumInternalContention 0
scalar SimpleScenario.node[48].nic.mac1609_4 totalBusyTime 0.002865
scalar SimpleScenario.node[49].appl generatedWSMs 2
scalar SimpleScenario.node[49].appl receivedWSMs 0
scalar SimpleScenario.node[49].appl generatedBSMs 2
scalar SimpleScenario.node[49].appl receivedBSMs 4
scalar SimpleScenario.node[49].nic.phy80211p busyTime 1.4834148994018
scalar SimpleScenario.node[49].nic.mac1609_4 ReceivedUnicastPackets 0
scalar SimpleScenario.node[49].nic.mac1609_4 ReceivedBroadcasts 4
scalar SimpleScenario.node[49].nic.mac1609_4 SentPackets 0
scalar SimpleScenario.node[49].nic.mac1609_4 SentAcknowledgements 0
scalar SimpleScenario.node[49].nic.mac1609_4 SNIRLostPackets 93
scalar SimpleScenario.node[49].nic.mac1609_4 RXTXLostPackets 0
scalar SimpleScenario.node[49].nic.mac1609_4 TotalLostPackets 93
scalar SimpleScenario.node[49].nic.mac1609_4 DroppedPacketsInMac 0
scalar SimpleScenario.node[49].nic.mac1609_4 TooLittleTime 0
scalar SimpleScenario.node[49].nic.mac1609_4 TimesIntoBackoff 0
scalar SimpleScenario.node[49].nic.mac1609_4 SlotsBackoff 0
scalar SimpleScenario.node[49].nic.mac1609_4 NumInternalContention 0
scalar SimpleScenario.node[49].nic.mac1609_4 totalBusyTime 0.002864
scalar SimpleScenario.node[50].appl generatedWSMs 2
scalar SimpleScenario.node[50].appl receivedWSMs 0
scalar SimpleScenario.node[50].appl generatedBSMs 2
scalar SimpleScenario.node[50].appl receivedBSMs 4
scalar SimpleScenario.node[50].nic.phy80211p busyTime 1.4834148994018
scalar SimpleScenario.node[50].nic.mac1609_4 ReceivedUnicastPackets 0
scalar SimpleScenario.node[50].nic.mac1609_4 ReceivedBroadcasts 4
scalar SimpleScenario.node[50].nic.mac1609_4 SentPackets 0
scalar SimpleScenario.node[50].nic.mac1609_4 SentAcknowledgements 0
scalar SimpleScenario.node[50].nic.mac1609_4 SNIRLostPackets 93
scalar SimpleScenario.node[50].nic.mac1609_4 RXTXLostPackets 0
scalar SimpleScenario.node[50].nic.mac1609_4 TotalLostPackets 93
scalar SimpleScenario.node[50].nic.mac1609_4 DroppedPacketsInMac 0
scalar SimpleScenario.node[50].nic.mac1609_4 TooLittleTime 0
scalar SimpleScenario.node[50].nic.mac1609_4 TimesIntoBackoff 1
scalar SimpleScenario.node[50].nic.mac1609_4 SlotsBackoff 14
scalar SimpleScenario.node[50].nic.mac1609_4 NumInternalContention 0
scalar SimpleScenario.node[50].nic.mac1609_4 totalBusyTime 0.002864
scalar SimpleScenario.node[51].appl generatedWSMs 2
scalar SimpleScenario.node[51].appl receivedWSMs 0
scalar SimpleScenario.node[51].appl generatedBSMs 2
scalar SimpleScenario.node[51].appl receivedBSMs 4
scalar SimpleScenario.node[51].nic.phy80211p busyTime 1.2060902664492
scalar SimpleScenario.node[51].nic.mac1609_4 ReceivedUnicastPackets 0
scalar SimpleScenario.node[51].nic.mac1609_4 ReceivedBroadcasts 4
scalar SimpleScenario.node[51].nic.mac1609_4 SentPackets 3
scalar SimpleScenario.node[51].nic.mac1609_4 SentAcknowledgements 0
scalar SimpleScenario.node[51].nic.mac1609_4 SNIRLostPackets 74
scalar SimpleScenario.node[51].nic.mac1609_4 RXTXLostPackets 16
scalar SimpleScenario.node[51].nic.mac1609_4 TotalLostPackets 90
scalar SimpleScenario.node[51].nic.mac1609_4 DroppedPacketsInMac 0
scalar SimpleScenario.node[51].nic.mac1609_4 TooLittleTime 0
scalar SimpleScenario.node[51].nic.mac1609_4 TimesIntoBackoff 4
scalar SimpleScenario.node[51].nic.mac1609_4 SlotsBackoff 19
scalar SimpleScenario.node[51].nic.mac1609_4 NumInternalContention 0
scalar SimpleScenario.node[51].nic.mac1609_4 totalBusyTime 0.002867
scalar SimpleScenario.node[52].appl generatedWSMs 2
scalar SimpleScenario.node[52].appl receivedWSMs 0
scalar SimpleScenario.node[52].appl generatedBSMs 2
scalar SimpleScenario.node[52].appl receivedBSMs 4
scalar SimpleScenario.node[52].nic.phy80211p busyTime 1.3942359978249
scalar SimpleScenario.node[52].nic.mac1609_4 ReceivedUnicastPackets 0
scalar SimpleScenario.node[52].nic.mac1609_4 ReceivedBroadcasts 4
scalar SimpleScenario.node[52].nic.mac1609_4 SentPackets 1
scalar SimpleScenario.node[52].nic.mac1609_4 SentAcknowledgements 0
scalar SimpleScenario.node[52].nic.mac1609_4 SNIRLostPackets 87
scalar SimpleScenario.node[52].nic.mac1609_4 RXTXLostPackets 5
scalar SimpleScenario.node[52].nic.mac1609_4 TotalLostPackets 92
scalar SimpleScenario.node[52].nic.mac1609_4 DroppedPacketsInMac 0
scalar SimpleScenario.node[52].nic.mac1609_4 TooLittleTime 0
scalar SimpleScenario.node[52].nic.mac1609_4 TimesIntoBackoff 1
scalar SimpleScenario.node[52].nic.mac1609_4 SlotsBackoff 15
scalar SimpleScenario.node[52].nic.mac1609_4 NumInternalContention 0
scalar SimpleScenario.node[52].nic.mac1609_4 totalBusyTime 0.002865
scalar SimpleScenario.node[53].appl generatedWSMs 2
scalar SimpleScenario.node[53].appl receivedWSMs 0
scalar SimpleScenario.node[53].appl generatedBSMs 3
scalar SimpleScenario.node[53].appl receivedBSMs 4
scalar SimpleScenario.node[53].nic.phy80211p busyTime 1.3800978792822
scalar SimpleScenario.node[53].nic.mac1609_4 ReceivedUnicastPackets 0
scalar SimpleScenario.node[53].nic.mac1609_4 ReceivedBroadcasts 4
scalar SimpleScenario.node[53].nic.mac1609_4 SentPackets 2
scalar SimpleScenario.node[53].nic.mac1609_4 SentAcknowledgements 0
scalar SimpleScenario.node[53].nic.mac1609_4 SNIRLostPackets 91
scalar SimpleScenario.node[53].nic.mac1609_4 RXTXLostPackets 1
scalar SimpleScenario.node[53].nic.mac1609_4 TotalLostPackets 92
scalar SimpleScenario.node[53].nic.mac1609_4 DroppedPacketsInMac 0
scalar SimpleScenario.node[53].nic.mac1609_4 TooLittleTime 0
scalar SimpleScenario.node[53].nic.mac1609_4 TimesIntoBackoff 2
scalar SimpleScenario.node[53].nic.mac1609_4 SlotsBackoff 12
scalar SimpleScenario.node[53].nic.mac1609_4 NumInternalContention 0
scalar SimpleScenario.node[53].nic.mac1609_4 totalBusyTime 0.002865
scalar SimpleScenario.node[54].appl generatedWSMs 2
scalar SimpleScenario.node[54].appl receivedWSMs 0
scalar SimpleScenario.node[54].appl generatedBSMs 2
scalar SimpleScenario.node[54].appl receivedBSMs 4
scalar SimpleScenario.node[54].nic.phy80211p busyTime 1.4834148994018
scalar SimpleScenario.node[54].nic.mac1609_4 ReceivedUnicastPackets 0
scalar SimpleScenario.node[54].nic.mac1609_4 ReceivedBroadcasts 4
scalar SimpleScenario.node[54].nic.mac1609_4 SentPackets 0
scalar SimpleScenario.node[54].nic.mac1609_4 SentAcknowledgements 0
scalar SimpleScenario.node[54].nic.mac1609_4 SNIRLostPackets 93
scalar SimpleScenario.node[54].nic.mac1609_4 RXTXLostPackets 0
scalar SimpleScenario.node[54].nic.mac1609_4 TotalLostPackets 93
scalar SimpleScenario.node[54].nic.mac1609_4 DroppedPacketsInMac 0
scalar SimpleScenario.node[54].nic.mac1609_4 TooLittleTime 0
scalar SimpleScenario.node[54].nic.mac1609_4 TimesIntoBackoff 0
scalar SimpleScenario.node[54].nic.mac1609_4 SlotsBackoff 0
scalar SimpleScenario.node[54].nic.mac1609_4 NumInternalContention 0
scalar SimpleScenario.node[54].nic.mac1609_4 totalBusyTime 0.002864
scalar SimpleScenario.node[55].appl generatedWSMs 2
scalar SimpleScenario.node[55].appl receivedWSMs 0
scalar SimpleScenario.node[55].appl generatedBSMs 2
scalar SimpleScenario.node[55].appl receivedBSMs 4
scalar SimpleScenario.node[55].nic.phy80211p busyTime 1.4834148994018
scalar SimpleScenario.node[55].nic.mac1609_4 ReceivedUnicastPackets 0
scalar SimpleScenario.node[55].nic.mac1609_4 ReceivedBroadcasts 4
scalar SimpleScenario.node[55].nic.mac1609_4 SentPackets 0
scalar SimpleScenario.node[55].nic.mac1609_4 SentAcknowledgements 0
scalar SimpleScenario.node[55].nic.mac1609_4 SNIRLostPackets 93
scalar SimpleScenario.node[55].nic.mac1609_4 RXTXLostPackets 0
scalar SimpleScenario.node[55].nic.mac1609_4 TotalLostPackets 93
scalar SimpleScenario.node[55].nic.mac1609_4 DroppedPacketsInMac 0
scalar SimpleScenario.node[55].nic.mac1609_4 TooLittleTime 0
scalar SimpleScenario.node[55].nic.mac1609_4 TimesIntoBackoff 0
scalar SimpleScenario.node[55].nic.mac1609_4 SlotsBackoff 0
scalar SimpleScenario.node[55].nic.mac1609_4 NumInternalContention 0
scalar SimpleScenario.node[55].nic.mac1609_4 totalBusyTime 0.002864
scalar SimpleScenario.node[56].appl generatedWSMs 2
scalar SimpleScenario.node[56].appl receivedWSMs 0
scalar SimpleScenario.node[56].appl generatedBSMs 3
scalar SimpleScenario.node[56].appl receivedBSMs 4
scalar SimpleScenario.node[56].nic.phy80211p busyTime 1.215878194671
scalar SimpleScenario.node[56].nic.mac1609_4 ReceivedUnicastPackets 0
scalar SimpleScenario.node[56].nic.mac1609_4 ReceivedBroadcasts 4
scalar SimpleScenario.node[56].nic.mac1609_4 SentPackets 4
scalar SimpleScenario.node[56].nic.mac1609_4 SentAcknowledgements 0
scalar SimpleScenario.node[56].nic.mac1609_4 SNIRLostPackets 75
scalar SimpleScenario.node[56].nic.mac1609_4 RXTXLostPackets 14
scalar SimpleScenario.node[56].nic.mac1609_4 TotalLostPackets 89
scalar SimpleScenario.node[56].nic.mac1609_4 DroppedPacketsInMac 0
scalar SimpleScenario.node[56].nic.mac1609_4 TooLittleTime 0
scalar SimpleScenario.node[56].nic.mac1609_4 TimesIntoBackoff 4
scalar SimpleScenario.node[56].nic.mac1609_4 SlotsBackoff 21
scalar SimpleScenario.node[56].nic.mac1609_4 NumInternalContention 0
scalar SimpleScenario.node[56].nic.mac1609_4 totalBusyTime 0.002868
scalar SimpleScenario.node[57].appl generatedWSMs 2
scalar SimpleScenario.node[57].appl receivedWSMs 0
scalar SimpleScenario.node[57].appl generatedBSMs 3
scalar SimpleScenario.node[57].appl receivedBSMs 4
scalar SimpleScenario.node[57].nic.phy80211p busyTime 1.3985861881457
scalar SimpleScenario.node[57].nic.mac1609_4 ReceivedUnicastPackets 0
scalar SimpleScenario.node[57].nic.mac1609_4 ReceivedBroadcasts 4
scalar SimpleScenario.node[57].nic.mac1609_4 SentPackets 1
scalar SimpleScenario.node[57].nic.mac1609_4 SentAcknowledgements 0
scalar SimpleScenario.node[57].nic.mac1609_4 SNIRLostPackets 87
scalar SimpleScenario.node[57].nic.mac1609_4 RXTXLostPackets 5
scalar SimpleScenario.node[57].nic.mac1609_4 TotalLostPackets 92
scalar SimpleScenario.node[57].nic.mac1609_4 DroppedPacketsInMac 0
scalar SimpleScenario.node[57].nic.mac1609_4 TooLittleTime 0
scalar SimpleScenario.node[57].nic.mac1609_4 TimesIntoBackoff 2
scalar SimpleScenario.node[57].nic.mac1609_4 SlotsBackoff 12
scalar SimpleScenario.node[57].nic.mac1609_4 NumInternalContention 0
scalar SimpleScenario.node[57].nic.mac1609_4 totalBusyTime 0.002865
scalar SimpleScenario.node[58].appl generatedWSMs 2
scalar SimpleScenario.node[58].appl receivedWSMs 0
scalar SimpleScenario.node[58].appl generatedBSMs 2
scalar SimpleScenario.node[58].appl receivedBSMs 4
scalar SimpleScenario.node[58].nic.phy80211p busyTime 1.2506797172376
scalar SimpleScenario.node[58].nic.mac1609_4 ReceivedUnicastPackets 0
scalar SimpleScenario.node[58].nic.mac1609_4 ReceivedBroadcasts 4
scalar SimpleScenario.node[58].nic.mac1609_4 SentPackets 3
scalar SimpleScenario.node[58].nic.mac1609_4 SentAcknowledgements 0
scalar SimpleScenario.node[58].nic.mac1609_4 SNIRLostPackets 77
scalar SimpleScenario.node[58].nic.mac1609_4 RXTXLostPackets 13
scalar SimpleScenario.node[58].nic.mac1609_4 TotalLostPackets 90
scalar SimpleScenario.node[58].nic.mac1609_4 DroppedPacketsInMac 0
scalar SimpleScenario.node[58].nic.mac1609_4 TooLittleTime 0
scalar SimpleScenario.node[58].nic.mac1609_4 TimesIntoBackoff 3
scalar SimpleScenario.node[58].nic.mac1609_4 SlotsBackoff 31
scalar SimpleScenario.node[58].nic.mac1609_4 NumInternalContention 0
scalar SimpleScenario.node[58].nic.mac1609_4 totalBusyTime 0.002867
scalar SimpleScenario.node[59].appl generatedWSMs 2
scalar SimpleScenario.node[59].appl receivedWSMs 0
scalar SimpleScenario.node[59].appl generatedBSMs 2
scalar SimpleScenario.node[59].appl receivedBSMs 3
scalar SimpleScenario.node[59].nic.phy80211p busyTime 1.3964110929853
scalar SimpleScenario.node[59].nic.mac1609_4 ReceivedUnicastPackets 0
scalar SimpleScenario.node[59].nic.mac1609_4 ReceivedBroadcasts 3
scalar SimpleScenario.node[59].nic.mac1609_4 SentPackets 2
scalar SimpleScenario.node[59].nic.mac1609_4 SentAcknowledgements 0
scalar SimpleScenario.node[59].nic.mac1609_4 SNIRLostPackets 88
scalar SimpleScenario.node[59].nic.mac1609_4 RXTXLostPackets 4
scalar SimpleScenario.node[59].nic.mac1609_4 TotalLostPackets 92
scalar SimpleScenario.node[59].nic.mac1609_4 DroppedPacketsInMac 0
scalar SimpleScenario.node[59].nic.mac1609_4 TooLittleTime 0
scalar SimpleScenario.node[59].nic.mac1609_4 TimesIntoBackoff 2
scalar SimpleScenario.node[59].nic.mac1609_4 SlotsBackoff 20
scalar SimpleScenario.node[59].nic.mac1609_4 NumInternalContention 0
scalar SimpleScenario.node[59].nic.mac1609_4 totalBusyTime 0.002866
scalar SimpleScenario.node[60].appl generatedWSMs 2
scalar SimpleScenario.node[60].appl receivedWSMs 0
scalar SimpleScenario.node[60].appl generatedBSMs 2
scalar SimpleScenario.node[60].appl receivedBSMs 4
scalar SimpleScenario.node[60].nic.phy80211p busyTime 1.3985861881457
scalar SimpleScenario.node[60].nic.mac1609_4 ReceivedUnicastPackets 0
scalar SimpleScenario.node[60].nic.mac1609_4 ReceivedBroadcasts 4
scalar SimpleScenario.node[60].nic.mac1609_4 SentPackets 1
scalar SimpleScenario.node[60].nic.mac1609_4 SentAcknowledgements 0
scalar SimpleScenario.node[60].nic.mac1609_4 SNIRLostPackets 87
scalar SimpleScenario.node[60].nic.mac1609_4 RXTXLostPackets 5
scalar SimpleScenario.node[60].nic.mac1609_4 TotalLostPackets 92
scalar SimpleScenario.node[60].nic.mac1609_4 DroppedPacketsInMac 0
scalar SimpleScenario.node[60].nic.mac1609_4 TooLittleTime 0
scalar SimpleScenario.node[60].nic.mac1609_4 TimesIntoBackoff 2
scalar SimpleScenario.node[60].nic.mac1609_4 SlotsBackoff 18
scalar SimpleScenario.node[60].nic.mac1609_4 NumInternalContention 0
scalar SimpleScenario.node[60].nic.mac1609_4 totalBusyTime 0.002865
scalar SimpleScenario.node[61].appl generatedWSMs 2
scalar SimpleScenario.node[61].appl receivedWSMs 0
scalar SimpleScenario.node[61].appl generatedBSMs 3
scalar SimpleScenario.node[61].appl receivedBSMs 4
scalar SimpleScenario.node[61].nic.phy80211p busyTime 1.4083741163676
scalar SimpleScenario.node[61].nic.mac1609_4 ReceivedUnicastPackets 0
scalar SimpleScenario.node[61].nic.mac1609_4 ReceivedBroadcasts 4
scalar SimpleScenario.node[61].nic.mac1609_4 SentPackets 1
scalar SimpleScenario.node[61].nic.mac1609_4 SentAcknowledgements 0
scalar SimpleScenario.node[61].nic.mac1609_4 SNIRLostPackets 93
scalar SimpleScenario.node[61].nic.mac1609_4 RXTXLostPackets 0
scalar SimpleScenario.node[61].nic.mac1609_4 TotalLostPackets 93
scalar SimpleScenario.node[61].nic.mac1609_4 DroppedPacketsInMac 0
scalar SimpleScenario.node[61].nic.mac1609_4 TooLittleTime 0
scalar SimpleScenario.node[61].nic.mac1609_4 TimesIntoBackoff 0
scalar SimpleScenario.node[61].nic.mac1609_4 SlotsBackoff 0
scalar SimpleScenario.node[61].nic.mac1609_4 NumInternalContention 0
scalar SimpleScenario.node[61].nic.mac1609_4 totalBusyTime 0.002864
scalar SimpleScenario.node[62].appl generatedWSMs 2
scalar SimpleScenario.node[62].appl receivedWSMs 0
scalar SimpleScenario.node[62].appl generatedBSMs 3
scalar SimpleScenario.node[62].appl receivedBSMs 4
scalar SimpleScenario.node[62].nic.phy80211p busyTime 1.3257205002719
scalar SimpleScenario.node[62].nic.mac1609_4 ReceivedUnicastPackets 0
scalar SimpleScenario.node[62].nic.mac1609_4 ReceivedBroadcasts 4
scalar SimpleScenario.node[62].nic.mac1609_4 SentPackets 2
scalar SimpleScenario.node[62].nic.mac1609_4 SentAcknowledgements 0
scalar SimpleScenario.node[62].nic.mac1609_4 SNIRLostPackets 82
scalar SimpleScenario.node[62].nic.mac1609_4 RXTXLostPackets 9
scalar SimpleScenario.node[62].nic.mac1609_4 TotalLostPackets 91
scalar SimpleScenario.node[62].nic.mac1609_4 DroppedPacketsInMac 0
scalar SimpleScenario.node[62].nic.mac1609_4 TooLittleTime 0
scalar SimpleScenario.node[62].nic.mac1609_4 TimesIntoBackoff 3
scalar SimpleScenario.node[62].nic.mac1609_4 SlotsBackoff 26
scalar SimpleScenario.node[62].nic.mac1609_4 NumInternalContention 0
scalar SimpleScenario.node[62].nic.mac1609_4 totalBusyTime 0.002866
scalar SimpleScenario.node[63].appl generatedWSMs 2
scalar SimpleScenario.node[63].appl receivedWSMs 0
scalar SimpleScenario.node[63].appl generatedBSMs 3
scalar SimpleScenario.node[63].appl receivedBSMs 4
scalar SimpleScenario.node[63].nic.phy80211p busyTime 1.4834148994018
scalar SimpleScenario.node[63].nic.mac1609_4 ReceivedUnicastPackets 0
scalar SimpleScenario.node[63].nic.mac1609_4 ReceivedBroadcasts 4
scalar SimpleScenario.node[63].nic.mac1609_4 SentPackets 0
scalar SimpleScenario.node[63].nic.mac1609_4 SentAcknowledgements 0
scalar SimpleScenario.node[63].nic.mac1609_4 SNIRLostPackets 93
scalar SimpleScenario.node[63].nic.mac1609_4 RXTXLostPackets 0
scalar SimpleScenario.node[63].nic.mac1609_4 TotalLostPackets 93
scalar SimpleScenario.node[63].nic.mac1609_4 DroppedPacketsInMac 0
scalar SimpleScenario.node[63].nic.mac1609_4 TooLittleTime 0
scalar SimpleScenario.node[63].nic.mac1609_4 TimesIntoBackoff 1
scalar SimpleScenario.node[63].nic.mac1609_4 SlotsBackoff 11
scalar SimpleScenario.node[63].nic.mac1609_4 NumInternalContention 0
scalar SimpleScenario.node[63].nic.mac1609_4 totalBusyTime 0.002864
scalar SimpleScenario.node[64].appl generatedWSMs 2
scalar SimpleScenario.node[64].appl receivedWSMs 0
scalar SimpleScenario.node[64].appl generatedBSMs 2
scalar SimpleScenario.node[64].appl receivedBSMs 4
scalar SimpleScenario.node[64].nic.phy80211p busyTime 1.4834148994018
scalar SimpleScenario.node[64].nic.mac1609_4 ReceivedUnicastPackets 0
scalar SimpleScenario.node[64].nic.mac1609_4 ReceivedBroadcasts 4
scalar SimpleScenario.node[64].nic.mac1609_4 SentPackets 0
scalar SimpleScenario.node[64].nic.mac1609_4 SentAcknowledgements 0
scalar SimpleScenario.node[64].nic.mac1609_4 SNIRLostPackets 93
scalar SimpleScenario.node[64].nic.mac1609_4 RXTXLostPackets 0
scalar SimpleScenario.node[64].nic.mac1609_4 TotalLostPackets 93
scalar SimpleScenario.node[64].nic.mac1609_4 DroppedPacketsInMac 0
scalar SimpleScenario.node[64].nic.mac1609_4 TooLittleTime 0
scalar SimpleScenario.node[64].nic.mac1609_4 TimesIntoBackoff 0
scalar SimpleScenario.node[64].nic.mac1609_4 SlotsBackoff 0
scalar SimpleScenario.node[64].nic.mac1609_4 NumInternalContention 0
scalar SimpleScenario.node[64].nic.mac1609_4 totalBusyTime 0.002864
scalar SimpleScenario.node[65].appl generatedWSMs 2
scalar SimpleScenario.node[65].appl receivedWSMs 0
scalar SimpleScenario.node[65].appl generatedBSMs 2
scalar SimpleScenario.node[65].appl receivedBSMs 4
scalar SimpleScenario.node[65].nic.phy80211p busyTime 1.4083741163676
scalar SimpleScenario.node[65].nic.mac1609_4 ReceivedUnicastPackets 0
scalar SimpleScenario.node[65].nic.mac1609_4 ReceivedBroadcasts 4
scalar SimpleScenario.node[65].nic.mac1609_4 SentPackets 1
scalar SimpleScenario.node[65].nic.mac1609_4 SentAcknowledgements 0
scalar SimpleScenario.node[65].nic.mac1609_4 SNIRLostPackets 93
scalar SimpleScenario.node[65].nic.mac1609_4 RXTXLostPackets 0
scalar SimpleScenario.node[65].nic.mac1609_4 TotalLostPackets 93
scalar SimpleScenario.node[65].nic.mac1609_4 DroppedPacketsInMac 0
scalar SimpleScenario.node[65].nic.mac1609_4 TooLittleTime 0
scalar SimpleScenario.node[65].nic.mac1609_4 TimesIntoBackoff 1
scalar SimpleScenario.node[65].nic.mac1609_4 SlotsBackoff 8
scalar SimpleScenario.node[65].nic.mac1609_4 NumInternalContention 0
scalar SimpleScenario.node[65].nic.mac1609_4 totalBusyTime 0.002864
scalar SimpleScenario.node[66].appl generatedWSMs 2
scalar SimpleScenario.node[66].appl receivedWSMs 0
scalar SimpleScenario.node[66].appl generatedBSMs 2
scalar SimpleScenario.node[66].appl receivedBSMs 4
scalar SimpleScenario.node[66].nic.phy80211p busyTime 1.4692767808592
scalar SimpleScenario.node[66].nic.mac1609_4 ReceivedUnicastPackets 0
scalar SimpleScenario.node[66].nic.mac1609_4 ReceivedBroadcasts 4
scalar SimpleScenario.node[66].nic.mac1609_4 SentPackets 0
scalar SimpleScenario.node[66].nic.mac1609_4 SentAcknowledgements 0
scalar SimpleScenario.node[66].nic.mac1609_4 SNIRLostPackets 93
scalar SimpleScenario.node[66].nic.mac1609_4 RXTXLostPackets 0
scalar SimpleScenario.node[66].nic.mac1609_4 TotalLostPackets 93
scalar SimpleScenario.node[66].nic.mac1609_4 DroppedPacketsInMac 0
scalar SimpleScenario.node[66].nic.mac1609_4 TooLittleTime 0
scalar SimpleScenario.node[66].nic.mac1609_4 TimesIntoBackoff 0
scalar SimpleScenario.node[66].nic.mac1609_4 SlotsBackoff 0
scalar SimpleScenario.node[66].nic.mac1609_4 NumInternalContention 0
scalar SimpleScenario.node[66].nic.mac1609_4 totalBusyTime 0.002864
scalar SimpleScenario.node[67].appl generatedWSMs 2
scalar SimpleScenario.node[67].appl receivedWSMs 0
scalar SimpleScenario.node[67].appl generatedBSMs 2
scalar SimpleScenario.node[67].appl receivedBSMs 4
scalar SimpleScenario.node[67].nic.phy80211p busyTime 1.4692767808592
scalar SimpleScenario.node[67].nic.mac1609_4 ReceivedUnicastPackets 0
scalar SimpleScenario.node[67].nic.mac1609_4 ReceivedBroadcasts 4
scalar SimpleScenario.node[67].nic.mac1609_4 SentPackets 0
scalar SimpleScenario.node[67].nic.mac1609_4 SentAcknowledgements 0
scalar SimpleScenario.node[67].nic.mac1609_4 SNIRLostPackets 93
scalar SimpleScenario.node[67].nic.mac1609_4 RXTXLostPackets 0
scalar SimpleScenario.node[67].nic.mac1609_4 TotalLostPackets 93
scalar SimpleScenario.node[67].nic.mac1609_4 DroppedPacketsInMac 0
scalar SimpleScenario.node[67].nic.mac1609_4 TooLittleTime 0
scalar SimpleScenario.node[67].nic.mac1609_4 TimesIntoBackoff 0
scalar SimpleScenario.node[67].nic.mac1609_4 SlotsBackoff 0
scalar SimpleScenario.node[67].nic.mac1609_4 NumInternalContention 0
scalar SimpleScenario.node[67].nic.mac1609_4 totalBusyTime 0.002864
scalar SimpleScenario.node[68].appl generatedWSMs 2
scalar SimpleScenario.node[68].appl receivedWSMs 0
scalar SimpleScenario.node[68].appl generatedBSMs 2
scalar SimpleScenario.node[68].appl receivedBSMs 4
scalar SimpleScenario.node[68].nic.phy80211p busyTime 1.384448069603
scalar SimpleScenario.node[68].nic.mac1609_4 ReceivedUnicastPackets 0
scalar SimpleScenario.node[68].nic.mac1609_4 ReceivedBroadcasts 4
scalar SimpleScenario.node[68].nic.mac1609_4 SentPackets 1
scalar SimpleScenario.node[68].nic.mac1609_4 SentAcknowledgements 0
scalar SimpleScenario.node[68].nic.mac1609_4 SNIRLostPackets 87
scalar SimpleScenario.node[68].nic.mac1609_4 RXTXLostPackets 5
scalar SimpleScenario.node[68].nic.mac1609_4 TotalLostPackets 92
scalar SimpleScenario.node[68].nic.mac1609_4 DroppedPacketsInMac 0
scalar SimpleScenario.node[68].nic.mac1609_4 TooLittleTime 0
scalar SimpleScenario.node[68].nic.mac1609_4 TimesIntoBackoff 2
scalar SimpleScenario.node[68].nic.mac1609_4 SlotsBackoff 10
scalar SimpleScenario.node[68].nic.mac1609_4 NumInternalContention 0
scalar SimpleScenario.node[68].nic.mac1609_4 totalBusyTime 0.002865
scalar SimpleScenario.node[69].appl generatedWSMs 2
scalar SimpleScenario.node[69].appl receivedWSMs 0
scalar SimpleScenario.node[69].appl generatedBSMs 2
scalar SimpleScenario.node[69].appl receivedBSMs 4
scalar SimpleScenario.node[69].nic.phy80211p busyTime 1.384448069603
scalar SimpleScenario.node[69].nic.mac1609_4 ReceivedUnicastPackets 0
scalar SimpleScenario.node[69].nic.mac1609_4 ReceivedBroadcasts 4
scalar SimpleScenario.node[69].nic.mac1609_4 SentPackets 1
scalar SimpleScenario.node[69].nic.mac1609_4 SentAcknowledgements 0
scalar SimpleScenario.node[69].nic.mac1609_4 SNIRLostPackets 87
scalar SimpleScenario.node[69].nic.mac1609_4 RXTXLostPackets 5
scalar SimpleScenario.node[69].nic.mac1609_4 TotalLostPackets 92
scalar SimpleScenario.node[69].nic.mac1609_4 DroppedPacketsInMac 0
scalar SimpleScenario.node[69].nic.mac1609_4 TooLittleTime 0
scalar SimpleScenario.node[69].nic.mac1609_4 TimesIntoBackoff 2
scalar SimpleScenario.node[69].nic.mac1609_4 SlotsBackoff 29
[...]
scalar SimpleScenario.node[82].nic.phy80211p busyTime 1.3094072865688
scalar SimpleScenario.node[82].nic.mac1609_4 ReceivedUnicastPackets 0
scalar SimpleScenario.node[82].nic.mac1609_4 ReceivedBroadcasts 4
scalar SimpleScenario.node[82].nic.mac1609_4 SentPackets 2
scalar SimpleScenario.node[82].nic.mac1609_4 SentAcknowledgements 0
scalar SimpleScenario.node[82].nic.mac1609_4 SNIRLostPackets 86
scalar SimpleScenario.node[82].nic.mac1609_4 RXTXLostPackets 6
scalar SimpleScenario.node[82].nic.mac1609_4 TotalLostPackets 92
scalar SimpleScenario.node[82].nic.mac1609_4 DroppedPacketsInMac 0
scalar SimpleScenario.node[82].nic.mac1609_4 TooLittleTime 0
scalar SimpleScenario.node[82].nic.mac1609_4 TimesIntoBackoff 1
scalar SimpleScenario.node[82].nic.mac1609_4 SlotsBackoff 2
scalar SimpleScenario.node[82].nic.mac1609_4 NumInternalContention 0
scalar SimpleScenario.node[82].nic.mac1609_4 totalBusyTime 0.002865
scalar SimpleScenario.node[83].appl generatedWSMs 2
scalar SimpleScenario.node[83].appl receivedWSMs 0
scalar SimpleScenario.node[83].appl generatedBSMs 2
scalar SimpleScenario.node[83].appl receivedBSMs 4
scalar SimpleScenario.node[83].nic.phy80211p busyTime 1.2691680261011
scalar SimpleScenario.node[83].nic.mac1609_4 ReceivedUnicastPackets 0
scalar SimpleScenario.node[83].nic.mac1609_4 ReceivedBroadcasts 4
scalar SimpleScenario.node[83].nic.mac1609_4 SentPackets 2
scalar SimpleScenario.node[83].nic.mac1609_4 SentAcknowledgements 0
scalar SimpleScenario.node[83].nic.mac1609_4 SNIRLostPackets 79
scalar SimpleScenario.node[83].nic.mac1609_4 RXTXLostPackets 12
scalar SimpleScenario.node[83].nic.mac1609_4 TotalLostPackets 91
scalar SimpleScenario.node[83].nic.mac1609_4 DroppedPacketsInMac 0
scalar SimpleScenario.node[83].nic.mac1609_4 TooLittleTime 0
scalar SimpleScenario.node[83].nic.mac1609_4 TimesIntoBackoff 2
scalar SimpleScenario.node[83].nic.mac1609_4 SlotsBackoff 28
scalar SimpleScenario.node[83].nic.mac1609_4 NumInternalContention 0
scalar SimpleScenario.node[83].nic.mac1609_4 totalBusyTime 0.002866
scalar SimpleScenario.node[84].appl generatedWSMs 2
scalar SimpleScenario.node[84].appl receivedWSMs 0
scalar SimpleScenario.node[84].appl generatedBSMs 2
scalar SimpleScenario.node[84].appl receivedBSMs 4
scalar SimpleScenario.node[84].nic.phy80211p busyTime 1.4692767808592
scalar SimpleScenario.node[84].nic.mac1609_4 ReceivedUnicastPackets 0
scalar SimpleScenario.node[84].nic.mac1609_4 ReceivedBroadcasts 4
scalar SimpleScenario.node[84].nic.mac1609_4 SentPackets 0
scalar SimpleScenario.node[84].nic.mac1609_4 SentAcknowledgements 0
scalar SimpleScenario.node[84].nic.mac1609_4 SNIRLostPackets 93
scalar SimpleScenario.node[84].nic.mac1609_4 RXTXLostPackets 0
scalar SimpleScenario.node[84].nic.mac1609_4 TotalLostPackets 93
scalar SimpleScenario.node[84].nic.mac1609_4 DroppedPacketsInMac 0
scalar SimpleScenario.node[84].nic.mac1609_4 TooLittleTime 0
scalar SimpleScenario.node[84].nic.mac1609_4 TimesIntoBackoff 0
scalar SimpleScenario.node[84].nic.mac1609_4 SlotsBackoff 0
scalar SimpleScenario.node[84].nic.mac1609_4 NumInternalContention 0
scalar SimpleScenario.node[84].nic.mac1609_4 totalBusyTime 0.002864
scalar SimpleScenario.node[85].appl generatedWSMs 2
scalar SimpleScenario.node[85].appl receivedWSMs 0
scalar SimpleScenario.node[85].appl generatedBSMs 2
scalar SimpleScenario.node[85].appl receivedBSMs 4
scalar SimpleScenario.node[85].nic.phy80211p busyTime 1.4692767808592
scalar SimpleScenario.node[85].nic.mac1609_4 ReceivedUnicastPackets 0
scalar SimpleScenario.node[85].nic.mac1609_4 ReceivedBroadcasts 4
scalar SimpleScenario.node[85].nic.mac1609_4 SentPackets 0
scalar SimpleScenario.node[85].nic.mac1609_4 SentAcknowledgements 0
scalar SimpleScenario.node[85].nic.mac1609_4 SNIRLostPackets 93
scalar SimpleScenario.node[85].nic.mac1609_4 RXTXLostPackets 0
scalar SimpleScenario.node[85].nic.mac1609_4 TotalLostPackets 93
scalar SimpleScenario.node[85].nic.mac1609_4 DroppedPacketsInMac 0
scalar SimpleScenario.node[85].nic.mac1609_4 TooLittleTime 0
scalar SimpleScenario.node[85].nic.mac1609_4 TimesIntoBackoff 0
scalar SimpleScenario.node[85].nic.mac1609_4 SlotsBackoff 0
scalar SimpleScenario.node[85].nic.mac1609_4 NumInternalContention 0
scalar SimpleScenario.node[85].nic.mac1609_4 totalBusyTime 0.002864
scalar SimpleScenario.node[86].appl generatedWSMs 2
scalar SimpleScenario.node[86].appl receivedWSMs 0
scalar SimpleScenario.node[86].appl generatedBSMs 2
scalar SimpleScenario.node[86].appl receivedBSMs 4
scalar SimpleScenario.node[86].nic.phy80211p busyTime 1.2811310494834
scalar SimpleScenario.node[86].nic.mac1609_4 ReceivedUnicastPackets 0
scalar SimpleScenario.node[86].nic.mac1609_4 ReceivedBroadcasts 4
scalar SimpleScenario.node[86].nic.mac1609_4 SentPackets 2
scalar SimpleScenario.node[86].nic.mac1609_4 SentAcknowledgements 0
scalar SimpleScenario.node[86].nic.mac1609_4 SNIRLostPackets 80
scalar SimpleScenario.node[86].nic.mac1609_4 RXTXLostPackets 11
scalar SimpleScenario.node[86].nic.mac1609_4 TotalLostPackets 91
scalar SimpleScenario.node[86].nic.mac1609_4 DroppedPacketsInMac 0
scalar SimpleScenario.node[86].nic.mac1609_4 TooLittleTime 0
scalar SimpleScenario.node[86].nic.mac1609_4 TimesIntoBackoff 3
scalar SimpleScenario.node[86].nic.mac1609_4 SlotsBackoff 19
scalar SimpleScenario.node[86].nic.mac1609_4 NumInternalContention 0
scalar SimpleScenario.node[86].nic.mac1609_4 totalBusyTime 0.002866
scalar SimpleScenario.node[87].appl generatedWSMs 2
scalar SimpleScenario.node[87].appl receivedWSMs 0
scalar SimpleScenario.node[87].appl generatedBSMs 2
scalar SimpleScenario.node[87].appl receivedBSMs 4
scalar SimpleScenario.node[87].nic.phy80211p busyTime 1.4268624252311
scalar SimpleScenario.node[87].nic.mac1609_4 ReceivedUnicastPackets 0
scalar SimpleScenario.node[87].nic.mac1609_4 ReceivedBroadcasts 4
scalar SimpleScenario.node[87].nic.mac1609_4 SentPackets 1
scalar SimpleScenario.node[87].nic.mac1609_4 SentAcknowledgements 0
scalar SimpleScenario.node[87].nic.mac1609_4 SNIRLostPackets 90
scalar SimpleScenario.node[87].nic.mac1609_4 RXTXLostPackets 2
scalar SimpleScenario.node[87].nic.mac1609_4 TotalLostPackets 92
scalar SimpleScenario.node[87].nic.mac1609_4 DroppedPacketsInMac 0
scalar SimpleScenario.node[87].nic.mac1609_4 TooLittleTime 0
scalar SimpleScenario.node[87].nic.mac1609_4 TimesIntoBackoff 2
scalar SimpleScenario.node[87].nic.mac1609_4 SlotsBackoff 25
scalar SimpleScenario.node[87].nic.mac1609_4 NumInternalContention 0
scalar SimpleScenario.node[87].nic.mac1609_4 totalBusyTime 0.002865
scalar SimpleScenario.node[88].appl generatedWSMs 2
scalar SimpleScenario.node[88].appl receivedWSMs 0
scalar SimpleScenario.node[88].appl generatedBSMs 2
scalar SimpleScenario.node[88].appl receivedBSMs 4
scalar SimpleScenario.node[88].nic.phy80211p busyTime 1.2669929309407
scalar SimpleScenario.node[88].nic.mac1609_4 ReceivedUnicastPackets 0
scalar SimpleScenario.node[88].nic.mac1609_4 ReceivedBroadcasts 4
scalar SimpleScenario.node[88].nic.mac1609_4 SentPackets 4
scalar SimpleScenario.node[88].nic.mac1609_4 SentAcknowledgements 0
scalar SimpleScenario.node[88].nic.mac1609_4 SNIRLostPackets 79
scalar SimpleScenario.node[88].nic.mac1609_4 RXTXLostPackets 10
scalar SimpleScenario.node[88].nic.mac1609_4 TotalLostPackets 89
scalar SimpleScenario.node[88].nic.mac1609_4 DroppedPacketsInMac 0
scalar SimpleScenario.node[88].nic.mac1609_4 TooLittleTime 0
scalar SimpleScenario.node[88].nic.mac1609_4 TimesIntoBackoff 4
scalar SimpleScenario.node[88].nic.mac1609_4 SlotsBackoff 19
scalar SimpleScenario.node[88].nic.mac1609_4 NumInternalContention 0
scalar SimpleScenario.node[88].nic.mac1609_4 totalBusyTime 0.002868
scalar SimpleScenario.node[89].appl generatedWSMs 2
scalar SimpleScenario.node[89].appl receivedWSMs 0
scalar SimpleScenario.node[89].appl generatedBSMs 2
scalar SimpleScenario.node[89].appl receivedBSMs 4
scalar SimpleScenario.node[89].nic.phy80211p busyTime 1.4692767808592
scalar SimpleScenario.node[89].nic.mac1609_4 ReceivedUnicastPackets 0
scalar SimpleScenario.node[89].nic.mac1609_4 ReceivedBroadcasts 4
scalar SimpleScenario.node[89].nic.mac1609_4 SentPackets 0
scalar SimpleScenario.node[89].nic.mac1609_4 SentAcknowledgements 0
scalar SimpleScenario.node[89].nic.mac1609_4 SNIRLostPackets 93
scalar SimpleScenario.node[89].nic.mac1609_4 RXTXLostPackets 0
scalar SimpleScenario.node[89].nic.mac1609_4 TotalLostPackets 93
scalar SimpleScenario.node[89].nic.mac1609_4 DroppedPacketsInMac 0
scalar SimpleScenario.node[89].nic.mac1609_4 TooLittleTime 0
scalar SimpleScenario.node[89].nic.mac1609_4 TimesIntoBackoff 0
scalar SimpleScenario.node[89].nic.mac1609_4 SlotsBackoff 0
scalar SimpleScenario.node[89].nic.mac1609_4 NumInternalContention 0
scalar SimpleScenario.node[89].nic.mac1609_4 totalBusyTime 0.002864
scalar SimpleScenario.node[90].appl generatedWSMs 2
scalar SimpleScenario.node[90].appl receivedWSMs 0
scalar SimpleScenario.node[90].appl generatedBSMs 2
scalar SimpleScenario.node[90].appl receivedBSMs 4
scalar SimpleScenario.node[90].nic.phy80211p busyTime 1.2767808591626
scalar SimpleScenario.node[90].nic.mac1609_4 ReceivedUnicastPackets 0
scalar SimpleScenario.node[90].nic.mac1609_4 ReceivedBroadcasts 4
scalar SimpleScenario.node[90].nic.mac1609_4 SentPackets 3
scalar SimpleScenario.node[90].nic.mac1609_4 SentAcknowledgements 0
scalar SimpleScenario.node[90].nic.mac1609_4 SNIRLostPackets 80
scalar SimpleScenario.node[90].nic.mac1609_4 RXTXLostPackets 10
scalar SimpleScenario.node[90].nic.mac1609_4 TotalLostPackets 90
scalar SimpleScenario.node[90].nic.mac1609_4 DroppedPacketsInMac 0
scalar SimpleScenario.node[90].nic.mac1609_4 TooLittleTime 0
scalar SimpleScenario.node[90].nic.mac1609_4 TimesIntoBackoff 3
scalar SimpleScenario.node[90].nic.mac1609_4 SlotsBackoff 27
scalar SimpleScenario.node[90].nic.mac1609_4 NumInternalContention 0
scalar SimpleScenario.node[90].nic.mac1609_4 totalBusyTime 0.002867
scalar SimpleScenario.node[91].appl generatedWSMs 2
scalar SimpleScenario.node[91].appl receivedWSMs 0
scalar SimpleScenario.node[91].appl generatedBSMs 2
scalar SimpleScenario.node[91].appl receivedBSMs 4
scalar SimpleScenario.node[91].nic.phy80211p busyTime 1.4692767808592
scalar SimpleScenario.node[91].nic.mac1609_4 ReceivedUnicastPackets 0
scalar SimpleScenario.node[91].nic.mac1609_4 ReceivedBroadcasts 4
scalar SimpleScenario.node[91].nic.mac1609_4 SentPackets 0
scalar SimpleScenario.node[91].nic.mac1609_4 SentAcknowledgements 0
scalar SimpleScenario.node[91].nic.mac1609_4 SNIRLostPackets 93
scalar SimpleScenario.node[91].nic.mac1609_4 RXTXLostPackets 0
scalar SimpleScenario.node[91].nic.mac1609_4 TotalLostPackets 93
scalar SimpleScenario.node[91].nic.mac1609_4 DroppedPacketsInMac 0
scalar SimpleScenario.node[91].nic.mac1609_4 TooLittleTime 0
scalar SimpleScenario.node[91].nic.mac1609_4 TimesIntoBackoff 0
scalar SimpleScenario.node[91].nic.mac1609_4 SlotsBackoff 0
scalar SimpleScenario.node[91].nic.mac1609_4 NumInternalContention 0
scalar SimpleScenario.node[91].nic.mac1609_4 totalBusyTime 0.002864
scalar SimpleScenario.node[92].appl generatedWSMs 2
scalar SimpleScenario.node[92].appl receivedWSMs 0
scalar SimpleScenario.node[92].appl generatedBSMs 2
scalar SimpleScenario.node[92].appl receivedBSMs 4
scalar SimpleScenario.node[92].nic.phy80211p busyTime 1.4692767808592
scalar SimpleScenario.node[92].nic.mac1609_4 ReceivedUnicastPackets 0
scalar SimpleScenario.node[92].nic.mac1609_4 ReceivedBroadcasts 4
scalar SimpleScenario.node[92].nic.mac1609_4 SentPackets 0
scalar SimpleScenario.node[92].nic.mac1609_4 SentAcknowledgements 0
scalar SimpleScenario.node[92].nic.mac1609_4 SNIRLostPackets 93
scalar SimpleScenario.node[92].nic.mac1609_4 RXTXLostPackets 0
scalar SimpleScenario.node[92].nic.mac1609_4 TotalLostPackets 93
scalar SimpleScenario.node[92].nic.mac1609_4 DroppedPacketsInMac 0
scalar SimpleScenario.node[92].nic.mac1609_4 TooLittleTime 0
scalar SimpleScenario.node[92].nic.mac1609_4 TimesIntoBackoff 0
scalar SimpleScenario.node[92].nic.mac1609_4 SlotsBackoff 0
scalar SimpleScenario.node[92].nic.mac1609_4 NumInternalContention 0
scalar SimpleScenario.node[92].nic.mac1609_4 totalBusyTime 0.002864
scalar SimpleScenario.node[93].appl generatedWSMs 2
scalar SimpleScenario.node[93].appl receivedWSMs 0
scalar SimpleScenario.node[93].appl generatedBSMs 3
scalar SimpleScenario.node[93].appl receivedBSMs 4
scalar SimpleScenario.node[93].nic.phy80211p busyTime 1.4388254486134
scalar SimpleScenario.node[93].nic.mac1609_4 ReceivedUnicastPackets 0
scalar SimpleScenario.node[93].nic.mac1609_4 ReceivedBroadcasts 4
scalar SimpleScenario.node[93].nic.mac1609_4 SentPackets 1
scalar SimpleScenario.node[93].nic.mac1609_4 SentAcknowledgements 0
scalar SimpleScenario.node[93].nic.mac1609_4 SNIRLostPackets 91
scalar SimpleScenario.node[93].nic.mac1609_4 RXTXLostPackets 1
scalar SimpleScenario.node[93].nic.mac1609_4 TotalLostPackets 92
scalar SimpleScenario.node[93].nic.mac1609_4 DroppedPacketsInMac 0
scalar SimpleScenario.node[93].nic.mac1609_4 TooLittleTime 0
scalar SimpleScenario.node[93].nic.mac1609_4 TimesIntoBackoff 1
scalar SimpleScenario.node[93].nic.mac1609_4 SlotsBackoff 11
scalar SimpleScenario.node[93].nic.mac1609_4 NumInternalContention 0
scalar SimpleScenario.node[93].nic.mac1609_4 totalBusyTime 0.002865
scalar SimpleScenario.node[94].appl generatedWSMs 2
scalar SimpleScenario.node[94].appl receivedWSMs 0
scalar SimpleScenario.node[94].appl generatedBSMs 2
scalar SimpleScenario.node[94].appl receivedBSMs 4
scalar SimpleScenario.node[94].nic.phy80211p busyTime 1.3800978792822
scalar SimpleScenario.node[94].nic.mac1609_4 ReceivedUnicastPackets 0
scalar SimpleScenario.node[94].nic.mac1609_4 ReceivedBroadcasts 4
scalar SimpleScenario.node[94].nic.mac1609_4 SentPackets 1
scalar SimpleScenario.node[94].nic.mac1609_4 SentAcknowledgements 0
scalar SimpleScenario.node[94].nic.mac1609_4 SNIRLostPackets 87
scalar SimpleScenario.node[94].nic.mac1609_4 RXTXLostPackets 5
scalar SimpleScenario.node[94].nic.mac1609_4 TotalLostPackets 92
scalar SimpleScenario.node[94].nic.mac1609_4 DroppedPacketsInMac 0
scalar SimpleScenario.node[94].nic.mac1609_4 TooLittleTime 0
scalar SimpleScenario.node[94].nic.mac1609_4 TimesIntoBackoff 1
scalar SimpleScenario.node[94].nic.mac1609_4 SlotsBackoff 14
scalar SimpleScenario.node[94].nic.mac1609_4 NumInternalContention 0
scalar SimpleScenario.node[94].nic.mac1609_4 totalBusyTime 0.002865
scalar SimpleScenario.node[95].appl generatedWSMs 2
scalar SimpleScenario.node[95].appl receivedWSMs 0
scalar SimpleScenario.node[95].appl generatedBSMs 3
scalar SimpleScenario.node[95].appl receivedBSMs 4
scalar SimpleScenario.node[95].nic.phy80211p busyTime 1.4268624252311
scalar SimpleScenario.node[95].nic.mac1609_4 ReceivedUnicastPackets 0
scalar SimpleScenario.node[95].nic.mac1609_4 ReceivedBroadcasts 4
scalar SimpleScenario.node[95].nic.mac1609_4 SentPackets 1
scalar SimpleScenario.node[95].nic.mac1609_4 SentAcknowledgements 0
scalar SimpleScenario.node[95].nic.mac1609_4 SNIRLostPackets 90
scalar SimpleScenario.node[95].nic.mac1609_4 RXTXLostPackets 2
scalar SimpleScenario.node[95].nic.mac1609_4 TotalLostPackets 92
scalar SimpleScenario.node[95].nic.mac1609_4 DroppedPacketsInMac 0
scalar SimpleScenario.node[95].nic.mac1609_4 TooLittleTime 0
scalar SimpleScenario.node[95].nic.mac1609_4 TimesIntoBackoff 1
scalar SimpleScenario.node[95].nic.mac1609_4 SlotsBackoff 15
scalar SimpleScenario.node[95].nic.mac1609_4 NumInternalContention 0
scalar SimpleScenario.node[95].nic.mac1609_4 totalBusyTime 0.002865
scalar SimpleScenario.node[96].appl generatedWSMs 2
scalar SimpleScenario.node[96].appl receivedWSMs 0
scalar SimpleScenario.node[96].appl generatedBSMs 2
scalar SimpleScenario.node[96].appl receivedBSMs 4
scalar SimpleScenario.node[96].nic.phy80211p busyTime 1.4692767808592
scalar SimpleScenario.node[96].nic.mac1609_4 ReceivedUnicastPackets 0
scalar SimpleScenario.node[96].nic.mac1609_4 ReceivedBroadcasts 4
scalar SimpleScenario.node[96].nic.mac1609_4 SentPackets 0
scalar SimpleScenario.node[96].nic.mac1609_4 SentAcknowledgements 0
scalar SimpleScenario.node[96].nic.mac1609_4 SNIRLostPackets 93
scalar SimpleScenario.node[96].nic.mac1609_4 RXTXLostPackets 0
scalar SimpleScenario.node[96].nic.mac1609_4 TotalLostPackets 93
scalar SimpleScenario.node[96].nic.mac1609_4 DroppedPacketsInMac 0
scalar SimpleScenario.node[96].nic.mac1609_4 TooLittleTime 0
scalar SimpleScenario.node[96].nic.mac1609_4 TimesIntoBackoff 0
scalar SimpleScenario.node[96].nic.mac1609_4 SlotsBackoff 0
scalar SimpleScenario.node[96].nic.mac1609_4 NumInternalContention 0
scalar SimpleScenario.node[96].nic.mac1609_4 totalBusyTime 0.002864
scalar SimpleScenario.node[97].appl generatedWSMs 2
scalar SimpleScenario.node[97].appl receivedWSMs 0
scalar SimpleScenario.node[97].appl generatedBSMs 2
scalar SimpleScenario.node[97].appl receivedBSMs 4
scalar SimpleScenario.node[97].nic.phy80211p busyTime 1.3964110929853
scalar SimpleScenario.node[97].nic.mac1609_4 ReceivedUnicastPackets 0
scalar SimpleScenario.node[97].nic.mac1609_4 ReceivedBroadcasts 4
scalar SimpleScenario.node[97].nic.mac1609_4 SentPackets 1
scalar SimpleScenario.node[97].nic.mac1609_4 SentAcknowledgements 0
scalar SimpleScenario.node[97].nic.mac1609_4 SNIRLostPackets 88
scalar SimpleScenario.node[97].nic.mac1609_4 RXTXLostPackets 4
scalar SimpleScenario.node[97].nic.mac1609_4 TotalLostPackets 92
scalar SimpleScenario.node[97].nic.mac1609_4 DroppedPacketsInMac 0
scalar SimpleScenario.node[97].nic.mac1609_4 TooLittleTime 0
scalar SimpleScenario.node[97].nic.mac1609_4 TimesIntoBackoff 2
scalar SimpleScenario.node[97].nic.mac1609_4 SlotsBackoff 15
scalar SimpleScenario.node[97].nic.mac1609_4 NumInternalContention 0
scalar SimpleScenario.node[97].nic.mac1609_4 totalBusyTime 0.002865
scalar SimpleScenario.node[98].appl generatedWSMs 2
scalar SimpleScenario.node[98].appl receivedWSMs 0
scalar SimpleScenario.node[98].appl generatedBSMs 2
scalar SimpleScenario.node[98].appl receivedBSMs 4
scalar SimpleScenario.node[98].nic.phy80211p busyTime 1.384448069603
scalar SimpleScenario.node[98].nic.mac1609_4 ReceivedUnicastPackets 0
scalar SimpleScenario.node[98].nic.mac1609_4 ReceivedBroadcasts 4
scalar SimpleScenario.node[98].nic.mac1609_4 SentPackets 1
scalar SimpleScenario.node[98].nic.mac1609_4 SentAcknowledgements 0
scalar SimpleScenario.node[98].nic.mac1609_4 SNIRLostPackets 87
scalar SimpleScenario.node[98].nic.mac1609_4 RXTXLostPackets 5
scalar SimpleScenario.node[98].nic.mac1609_4 TotalLostPackets 92
scalar SimpleScenario.node[98].nic.mac1609_4 DroppedPacketsInMac 0
scalar SimpleScenario.node[98].nic.mac1609_4 TooLittleTime 0
scalar SimpleScenario.node[98].nic.mac1609_4 TimesIntoBackoff 1
scalar SimpleScenario.node[98].nic.mac1609_4 SlotsBackoff 10
scalar SimpleScenario.node[98].nic.mac1609_4 NumInternalContention 0
scalar SimpleScenario.node[98].nic.mac1609_4 totalBusyTime 0.002865
scalar SimpleScenario.node[99].appl generatedWSMs 2
scalar SimpleScenario.node[99].appl receivedWSMs 0
scalar SimpleScenario.node[99].appl generatedBSMs 2
scalar SimpleScenario.node[99].appl receivedBSMs 4
scalar SimpleScenario.node[99].nic.phy80211p busyTime 1.410549211528
scalar SimpleScenario.node[99].nic.mac1609_4 ReceivedUnicastPackets 0
scalar SimpleScenario.node[99].nic.mac1609_4 ReceivedBroadcasts 4
scalar SimpleScenario.node[99].nic.mac1609_4 SentPackets 1
scalar SimpleScenario.node[99].nic.mac1609_4 SentAcknowledgements 0
scalar SimpleScenario.node[99].nic.mac1609_4 SNIRLostPackets 89
scalar SimpleScenario.node[99].nic.mac1609_4 RXTXLostPackets 3
scalar SimpleScenario.node[99].nic.mac1609_4 TotalLostPackets 92
scalar SimpleScenario.node[99].nic.mac1609_4 DroppedPacketsInMac 0
scalar SimpleScenario.node[99].nic.mac1609_4 TooLittleTime 0
scalar SimpleScenario.node[99].nic.mac1609_4 TimesIntoBackoff 2
scalar SimpleScenario.node[99].nic.mac1609_4 SlotsBackoff 20
scalar SimpleScenario.node[99].nic.mac1609_4 NumInternalContention 0
scalar SimpleScenario.node[99].nic.mac1609_4 totalBusyTime 0.002865

